<?xml version="1.0" encoding="UTF-8"?>

<!-- generated on 2024-05-27 13:05:17 by Eclipse SUMO netedit Version 1.12.0
<configuration xmlns:xsi="http://www.w3.org/2001/XMLSchema-instance" xsi:noNamespaceSchemaLocation="http://sumo.dlr.de/xsd/netconvertConfiguration.xsd">

    <input>
        <sumo-net-file value="Adapters/co_simulation/sumo_configuration/ruadapega/output.net.xml"/>
    </input>

    <output>
        <output-file value="Adapters/co_simulation/sumo_configuration/ruadapega/output.net.xml"/>
    </output>

    <processing>
        <geometry.min-radius.fix.railways value="false"/>
        <geometry.max-grade.fix value="false"/>
        <offset.disable-normalization value="true"/>
        <lefthand value="false"/>
    </processing>

    <junctions>
        <no-turnarounds value="true"/>
        <junctions.corner-detail value="5"/>
        <junctions.limit-turn-speed value="5.5"/>
        <rectangular-lane-cut value="true"/>
    </junctions>

    <pedestrian>
        <walkingareas value="false"/>
    </pedestrian>

    <report>
        <aggregate-warnings value="5"/>
    </report>

</configuration>
-->

<net version="1.9" junctionCornerDetail="5" rectangularLaneCut="true" limitTurnSpeed="5.50" xmlns:xsi="http://www.w3.org/2001/XMLSchema-instance" xsi:noNamespaceSchemaLocation="http://sumo.dlr.de/xsd/net_file.xsd">

    <location netOffset="-0.32,1.72" convBoundary="0.00,0.00,494.60,1190.18" origBoundary="0.000000,0.000000,0.000000,0.000000" projParameter="+proj=tmerc +lat_0=40.62817468487931 +lon_0=-8.6619297665839 +x_0=0 +y_0=0 +k_0=1.0 +ellps=GRS80 +units=m +no_defs"/>

    <type id="bidirectional" priority="1" speed="1.39" disallow="pedestrian tram rail_urban rail rail_electric rail_fast ship" width="3.65"/>
    <type id="biking" priority="-1" speed="5.56" allow="bicycle" width="1.50"/>
    <type id="border" priority="0" speed="1.39" disallow="all" discard="1" width="0.10"/>
    <type id="driving" priority="1" speed="13.89" disallow="pedestrian tram rail_urban rail rail_electric rail_fast ship" width="3.65"/>
    <type id="entry" priority="1" speed="22.22" disallow="pedestrian tram rail_urban rail rail_electric rail_fast ship" width="3.65"/>
    <type id="exit" priority="1" speed="22.22" disallow="pedestrian tram rail_urban rail rail_electric rail_fast ship" width="3.65"/>
    <type id="median" priority="0" speed="1.39" disallow="all" discard="1" width="0.10"/>
    <type id="mwyEntry" priority="1" speed="22.22" allow="private emergency authority army vip passenger hov taxi bus coach delivery truck trailer motorcycle evehicle custom1 custom2" width="3.65"/>
    <type id="mwyExit" priority="1" speed="22.22" allow="private emergency authority army vip passenger hov taxi bus coach delivery truck trailer motorcycle evehicle custom1 custom2" width="3.65"/>
    <type id="none" priority="0" speed="1.39" disallow="all" discard="1" width="1.00"/>
    <type id="offRamp" priority="1" speed="22.22" allow="private emergency authority army vip passenger hov taxi bus coach delivery truck trailer motorcycle evehicle custom1 custom2" width="3.65"/>
    <type id="onRamp" priority="1" speed="22.22" allow="private emergency authority army vip passenger hov taxi bus coach delivery truck trailer motorcycle evehicle custom1 custom2" width="3.65"/>
    <type id="parking" priority="1" speed="1.39" disallow="pedestrian tram rail_urban rail rail_electric rail_fast ship" width="2.50"/>
    <type id="rail" priority="3" speed="33.33" allow="rail_urban rail rail_electric rail_fast" width="3.65"/>
    <type id="restricted" priority="0" speed="13.89" disallow="all" width="3.65"/>
    <type id="roadWorks" priority="0" speed="1.39" allow="authority" width="3.65"/>
    <type id="shoulder" priority="0" speed="1.39" disallow="all" discard="1" width="1.00"/>
    <type id="sidewalk" priority="-2" speed="2.78" allow="pedestrian" width="2.50"/>
    <type id="special1" priority="1" speed="22.22" allow="custom1" discard="1" width="3.65"/>
    <type id="special2" priority="1" speed="22.22" allow="custom2" discard="1" width="3.65"/>
    <type id="special3" priority="1" speed="22.22" allow="custom1 custom2" discard="1" width="3.65"/>
    <type id="stop" priority="1" speed="13.89" disallow="pedestrian tram rail_urban rail rail_electric rail_fast ship" width="3.65"/>
    <type id="tram" priority="2" speed="13.89" allow="tram" width="3.65"/>

    <edge id=":17_0" function="internal">
        <lane id=":17_0_0" index="0" allow="pedestrian" speed="4.92" length="4.61" width="2.80" shape="149.63,179.93 148.53,179.34 147.48,179.23 146.50,179.61 145.56,180.45">
            <param key="origId" value="600_-2"/>
        </lane>
        <lane id=":17_0_1" index="1" disallow="pedestrian tram rail_urban rail rail_electric rail_fast ship" speed="6.77" length="9.35" width="3.35" shape="151.44,177.44 149.21,176.25 147.09,176.03 145.08,176.77 143.20,178.49">
            <param key="origId" value="600_-1"/>
        </lane>
    </edge>
    <edge id=":17_2" function="internal">
        <lane id=":17_2_0" index="0" disallow="pedestrian tram rail_urban rail rail_electric rail_fast ship" speed="9.16" length="13.47" width="3.35" shape="151.44,177.44 148.58,174.86 146.78,172.07 146.04,169.08 146.37,165.89">
            <param key="origId" value="601_-1"/>
        </lane>
    </edge>
    <edge id=":17_3" function="internal">
        <lane id=":17_3_0" index="0" allow="pedestrian" speed="6.15" length="5.76" width="2.80" shape="152.59,167.51 152.52,168.69 152.94,169.88 153.84,171.06 155.23,172.25">
            <param key="origId" value="602_-2"/>
        </lane>
        <lane id=":17_3_1" index="1" disallow="pedestrian tram rail_urban rail rail_electric rail_fast ship" speed="7.76" length="9.45" width="3.35" shape="149.61,166.73 149.42,168.88 149.99,170.93 151.32,172.88 153.42,174.74">
            <param key="origId" value="602_-1"/>
        </lane>
    </edge>
    <edge id=":17_5" function="internal">
        <lane id=":17_5_0" index="0" disallow="pedestrian tram rail_urban rail rail_electric rail_fast ship" speed="13.89" length="13.59" width="3.35" shape="149.61,166.73 148.50,170.58 147.37,173.11 145.77,175.39 143.20,178.49">
            <param key="origId" value="603_-1"/>
        </lane>
    </edge>
    <edge id=":17_6" function="internal">
        <lane id=":17_6_0" index="0" allow="pedestrian" speed="13.89" length="11.44" width="2.80" shape="138.26,174.39 140.30,171.94 141.59,170.14 142.50,168.15 143.39,165.11">
            <param key="origId" value="604_-2"/>
        </lane>
        <lane id=":17_6_1" index="1" disallow="pedestrian tram rail_urban rail rail_electric rail_fast ship" speed="13.89" length="11.44" width="3.35" shape="140.62,176.35 142.92,173.59 144.36,171.56 145.37,169.31 146.37,165.89">
            <param key="origId" value="604_-1"/>
        </lane>
    </edge>
    <edge id=":17_8" function="internal">
        <lane id=":17_8_0" index="0" disallow="pedestrian tram rail_urban rail rail_electric rail_fast ship" speed="8.28" length="4.27" width="3.35" shape="140.62,176.35 143.55,173.69 143.85,173.58">
            <param key="origId" value="605_-1"/>
        </lane>
    </edge>
    <edge id=":17_9" function="internal">
        <lane id=":17_9_0" index="0" disallow="pedestrian tram rail_urban rail rail_electric rail_fast ship" speed="8.28" length="10.24" width="3.35" shape="143.85,173.58 146.65,172.54 149.94,172.88 153.42,174.74">
            <param key="origId" value="605_-1"/>
        </lane>
    </edge>
    <edge id=":18_0" function="internal">
        <lane id=":18_0_0" index="0" allow="pedestrian" speed="4.64" length="5.17" width="2.80" shape="197.46,133.68 196.25,132.73 195.15,132.48 194.18,132.93 193.31,134.08">
            <param key="origId" value="582_-2"/>
        </lane>
        <lane id=":18_0_1" index="1" disallow="pedestrian tram rail_urban rail rail_electric rail_fast ship" speed="6.58" length="11.32" width="3.35" shape="199.65,131.52 197.04,129.51 194.66,129.02 192.51,130.05 190.61,132.62">
            <param key="origId" value="582_-1"/>
        </lane>
    </edge>
    <edge id=":18_2" function="internal">
        <lane id=":18_2_0" index="0" allow="pedestrian" speed="7.04" length="8.17" width="2.80" shape="200.73,120.00 200.52,121.28 201.02,122.86 202.25,124.76 204.20,126.98">
            <param key="origId" value="583_-2"/>
        </lane>
        <lane id=":18_2_1" index="1" disallow="pedestrian tram rail_urban rail rail_electric rail_fast ship" speed="8.46" length="12.04" width="3.35" shape="197.99,118.60 197.43,120.85 197.92,123.36 199.46,126.14 202.05,129.18">
            <param key="origId" value="583_-1"/>
        </lane>
    </edge>
    <edge id=":18_4" function="internal">
        <lane id=":18_4_0" index="0" disallow="pedestrian tram rail_urban rail rail_electric rail_fast ship" speed="13.89" length="15.85" width="3.35" shape="197.99,118.60 190.61,132.62">
            <param key="origId" value="584_-1"/>
        </lane>
    </edge>
    <edge id=":19_0" function="internal">
        <lane id=":19_0_0" index="0" disallow="pedestrian tram rail_urban rail rail_electric rail_fast ship" speed="3.73" length="4.89" width="3.35" shape="246.61,171.92 246.95,173.39 246.67,174.28 245.79,174.60 244.31,174.34"/>
    </edge>
    <edge id=":2_0" function="internal">
        <lane id=":2_0_0" index="0" allow="pedestrian" speed="4.87" length="4.65" width="2.80" shape="377.76,42.23 378.72,41.39 379.19,40.45 379.17,39.39 378.66,38.23">
            <param key="origId" value="590_-2"/>
        </lane>
        <lane id=":2_0_1" index="1" disallow="pedestrian tram rail_urban rail rail_electric rail_fast ship" speed="6.74" length="9.53" width="3.35" shape="379.44,44.81 381.40,43.09 382.36,41.16 382.32,38.99 381.27,36.61">
            <param key="origId" value="590_-1"/>
        </lane>
    </edge>
    <edge id=":20_0" function="internal">
        <lane id=":20_0_0" index="0" allow="pedestrian" speed="7.43" length="14.60" width="2.80" shape="190.61,56.63 193.91,58.07 195.54,60.48 195.51,63.87 193.81,68.25">
            <param key="origId" value="575_-2"/>
        </lane>
        <lane id=":20_0_1" index="1" disallow="pedestrian tram rail_urban rail rail_electric rail_fast ship" speed="5.93" length="8.70" width="3.35" shape="189.92,59.63 191.64,60.45 192.41,61.93 192.22,64.05 191.09,66.82">
            <param key="origId" value="575_-1"/>
        </lane>
    </edge>
    <edge id=":22_0" function="internal">
        <lane id=":22_0_0" index="0" allow="pedestrian" speed="13.89" length="3.98" width="2.80" shape="341.70,1077.35 341.54,1076.34 341.37,1075.65 341.10,1075.00 340.64,1074.08">
            <param key="origId" value="554_-2"/>
        </lane>
        <lane id=":22_0_1" index="1" disallow="pedestrian tram rail_urban rail rail_electric rail_fast ship" speed="13.89" length="3.98" width="3.35" shape="344.74,1076.89 344.53,1075.58 344.31,1074.69 343.97,1073.85 343.36,1072.66">
            <param key="origId" value="554_-1"/>
        </lane>
    </edge>
    <edge id=":22_2" function="internal">
        <lane id=":22_2_0" index="0" disallow="pedestrian tram rail_urban rail rail_electric rail_fast ship" speed="5.27" length="3.21" width="3.35" shape="344.74,1076.89 344.64,1074.11 344.93,1073.79">
            <param key="origId" value="555_-1"/>
        </lane>
    </edge>
    <edge id=":22_5" function="internal">
        <lane id=":22_5_0" index="0" disallow="pedestrian tram rail_urban rail rail_electric rail_fast ship" speed="5.27" length="6.63" width="3.35" shape="344.93,1073.79 345.46,1073.20 347.20,1074.14 349.85,1076.94">
            <param key="origId" value="555_-1"/>
        </lane>
    </edge>
    <edge id=":22_3" function="internal">
        <lane id=":22_3_0" index="0" allow="pedestrian" speed="13.89" length="6.49" width="2.80" shape="349.06,1069.70 349.88,1071.34 350.43,1072.47 351.09,1073.53 352.21,1074.96">
            <param key="origId" value="556_-2"/>
        </lane>
        <lane id=":22_3_1" index="1" disallow="pedestrian tram rail_urban rail rail_electric rail_fast ship" speed="13.89" length="6.49" width="3.35" shape="346.34,1071.12 347.24,1072.93 347.87,1074.18 348.61,1075.35 349.85,1076.94">
            <param key="origId" value="556_-1"/>
        </lane>
    </edge>
    <edge id=":24_0" function="internal">
        <lane id=":24_0_0" index="0" allow="pedestrian" speed="13.89" length="11.85" width="2.80" shape="165.06,191.63 155.81,184.40">
            <param key="origId" value="585_-2"/>
        </lane>
        <lane id=":24_0_1" index="1" disallow="pedestrian tram rail_urban rail rail_electric rail_fast ship" speed="13.89" length="11.85" width="3.35" shape="167.03,189.27 157.61,181.91">
            <param key="origId" value="585_-1"/>
        </lane>
    </edge>
    <edge id=":24_2" function="internal">
        <lane id=":24_2_0" index="0" disallow="pedestrian tram rail_urban rail rail_electric rail_fast ship" speed="3.73" length="1.51" width="3.35" shape="167.03,189.27 166.60,187.82">
            <param key="origId" value="586_-1"/>
        </lane>
    </edge>
    <edge id=":24_8" function="internal">
        <lane id=":24_8_0" index="0" disallow="pedestrian tram rail_urban rail rail_electric rail_fast ship" speed="3.73" length="3.38" width="3.35" shape="166.60,187.82 166.81,186.91 167.67,186.53 169.17,186.69">
            <param key="origId" value="586_-1"/>
        </lane>
    </edge>
    <edge id=":24_3" function="internal">
        <lane id=":24_3_0" index="0" allow="pedestrian" speed="5.76" length="5.91" width="2.80" shape="171.12,178.89 170.37,180.63 170.12,182.12 170.38,183.36 171.14,184.33">
            <param key="origId" value="587_-2"/>
        </lane>
        <lane id=":24_3_1" index="1" disallow="pedestrian tram rail_urban rail rail_electric rail_fast ship" speed="7.42" length="10.15" width="3.35" shape="168.42,177.43 167.26,180.25 167.00,182.73 167.64,184.88 169.17,186.69">
            <param key="origId" value="587_-1"/>
        </lane>
    </edge>
    <edge id=":24_5" function="internal">
        <lane id=":24_5_0" index="0" disallow="pedestrian tram rail_urban rail rail_electric rail_fast ship" speed="7.53" length="13.66" width="3.35" shape="168.42,177.43 165.96,181.03 163.34,182.98 160.55,183.27 157.61,181.91">
            <param key="origId" value="588_-1"/>
        </lane>
    </edge>
    <edge id=":24_6" function="internal">
        <lane id=":24_6_0" index="0" allow="pedestrian" speed="13.89" length="12.29" width="2.80" shape="161.37,176.70 171.14,184.33">
            <param key="origId" value="589_-2"/>
        </lane>
        <lane id=":24_6_1" index="1" disallow="pedestrian tram rail_urban rail rail_electric rail_fast ship" speed="13.89" length="12.29" width="3.35" shape="159.57,179.19 169.17,186.69">
            <param key="origId" value="589_-1"/>
        </lane>
    </edge>
    <edge id=":31_0" function="internal">
        <lane id=":31_0_0" index="0" allow="pedestrian" speed="20.84" length="9.84" width="2.80" shape="372.93,1082.96 370.64,1084.65 368.99,1085.71 367.45,1086.88 365.49,1088.91">
            <param key="origId" value="550_-2"/>
        </lane>
        <lane id=":31_0_1" index="1" disallow="pedestrian tram rail_urban rail rail_electric rail_fast ship" speed="20.84" length="9.84" width="3.35" shape="371.01,1080.57 368.59,1082.35 366.85,1083.49 365.23,1084.75 363.17,1086.90">
            <param key="origId" value="550_-1"/>
        </lane>
    </edge>
    <edge id=":31_2" function="internal">
        <lane id=":31_2_0" index="0" disallow="pedestrian tram rail_urban rail rail_electric rail_fast ship" speed="3.73" length="1.51" width="3.35" shape="371.01,1080.57 369.50,1080.70">
            <param key="origId" value="551_-1"/>
        </lane>
    </edge>
    <edge id=":31_6" function="internal">
        <lane id=":31_6_0" index="0" disallow="pedestrian tram rail_urban rail rail_electric rail_fast ship" speed="3.73" length="3.38" width="3.35" shape="369.50,1080.70 368.65,1080.31 368.46,1079.39 368.91,1077.95">
            <param key="origId" value="551_-1"/>
        </lane>
    </edge>
    <edge id=":31_3" function="internal">
        <lane id=":31_3_0" index="0" allow="pedestrian" speed="11.09" length="5.00" width="2.80" shape="363.11,1077.22 364.35,1076.96 365.20,1076.71 365.98,1076.31 366.99,1075.56">
            <param key="origId" value="552_-2"/>
        </lane>
        <lane id=":31_3_1" index="1" disallow="pedestrian tram rail_urban rail rail_electric rail_fast ship" speed="12.78" length="5.00" width="3.35" shape="363.77,1080.22 365.42,1079.86 366.55,1079.52 367.57,1078.97 368.91,1077.95">
            <param key="origId" value="552_-1"/>
        </lane>
    </edge>
    <edge id=":31_5" function="internal">
        <lane id=":31_5_0" index="0" disallow="pedestrian tram rail_urban rail rail_electric rail_fast ship" speed="5.51" length="3.64" width="3.35" shape="363.77,1080.22 366.14,1080.11 366.82,1081.19">
            <param key="origId" value="553_-1"/>
        </lane>
    </edge>
    <edge id=":31_7" function="internal">
        <lane id=":31_7_0" index="0" disallow="pedestrian tram rail_urban rail rail_electric rail_fast ship" speed="5.51" length="6.83" width="3.35" shape="366.82,1081.19 365.83,1083.45 363.17,1086.90">
            <param key="origId" value="553_-1"/>
        </lane>
    </edge>
    <edge id=":32_0" function="internal">
        <lane id=":32_0_0" index="0" allow="pedestrian" speed="5.51" length="9.38" width="2.80" shape="397.10,1051.44 401.36,1050.99 403.79,1052.06 404.39,1054.64 403.17,1058.75">
            <param key="origId" value="597_-2"/>
        </lane>
        <lane id=":32_0_1" index="1" disallow="pedestrian tram rail_urban rail rail_electric rail_fast ship" speed="3.73" length="9.38" width="3.35" shape="399.06,1053.81 400.56,1053.65 401.42,1054.02 401.64,1054.94 401.20,1056.38">
            <param key="origId" value="597_-1"/>
        </lane>
    </edge>
    <edge id=":34_0" function="internal">
        <lane id=":34_0_0" index="0" allow="pedestrian" speed="13.89" length="6.16" width="2.80" shape="147.63,124.31 147.57,122.64 147.46,121.49 147.19,120.38 146.61,118.81">
            <param key="origId" value="571_-2"/>
        </lane>
        <lane id=":34_0_1" index="1" disallow="pedestrian tram rail_urban rail rail_electric rail_fast ship" speed="13.89" length="6.16" width="3.35" shape="150.71,124.19 150.63,122.21 150.49,120.85 150.16,119.53 149.47,117.68">
            <param key="origId" value="571_-1"/>
        </lane>
    </edge>
    <edge id=":34_2" function="internal">
        <lane id=":34_2_0" index="0" allow="pedestrian" speed="6.07" length="5.64" width="2.80" shape="160.68,119.98 159.09,120.82 157.97,121.76 157.31,122.79 157.13,123.93">
            <param key="origId" value="572_-2"/>
        </lane>
        <lane id=":34_2_1" index="1" disallow="pedestrian tram rail_urban rail rail_electric rail_fast ship" speed="7.70" length="9.34" width="3.35" shape="159.46,117.16 157.02,118.50 155.31,120.09 154.32,121.94 154.05,124.05">
            <param key="origId" value="572_-1"/>
        </lane>
    </edge>
    <edge id=":34_4" function="internal">
        <lane id=":34_4_0" index="0" disallow="pedestrian tram rail_urban rail rail_electric rail_fast ship" speed="7.00" length="10.84" width="3.35" shape="159.46,117.16 155.57,118.60 152.61,119.17 150.58,118.87 149.47,117.68">
            <param key="origId" value="573_-1"/>
        </lane>
    </edge>
    <edge id=":34_5" function="internal">
        <lane id=":34_5_0" index="0" allow="pedestrian" speed="13.89" length="8.32" width="2.80" shape="155.45,115.33 156.36,117.77 156.82,119.51 157.01,121.31 157.13,123.93">
            <param key="origId" value="574_-2"/>
        </lane>
        <lane id=":34_5_1" index="1" disallow="pedestrian tram rail_urban rail rail_electric rail_fast ship" speed="13.89" length="8.32" width="3.35" shape="152.59,116.46 153.39,118.62 153.79,120.15 153.96,121.74 154.05,124.05">
            <param key="origId" value="574_-1"/>
        </lane>
    </edge>
    <edge id=":35_0" function="internal">
        <lane id=":35_0_0" index="0" allow="pedestrian" speed="13.89" length="12.48" width="2.80" shape="142.37,108.06 141.13,104.71 140.26,102.40 139.10,100.26 137.00,97.41">
            <param key="origId" value="576_-2"/>
        </lane>
        <lane id=":35_0_1" index="1" disallow="pedestrian tram rail_urban rail rail_electric rail_fast ship" speed="13.89" length="12.48" width="3.35" shape="145.23,106.93 143.89,103.33 142.94,100.85 141.67,98.55 139.39,95.49">
            <param key="origId" value="576_-1"/>
        </lane>
    </edge>
    <edge id=":35_2" function="internal">
        <lane id=":35_2_0" index="0" disallow="pedestrian tram rail_urban rail rail_electric rail_fast ship" speed="11.83" length="2.06" width="3.35" shape="145.23,106.93 145.23,105.13 145.31,104.88">
            <param key="origId" value="577_-1"/>
        </lane>
    </edge>
    <edge id=":35_7" function="internal">
        <lane id=":35_7_0" index="0" disallow="pedestrian tram rail_urban rail rail_electric rail_fast ship" speed="11.83" length="13.49" width="3.35" shape="145.31,104.88 146.19,102.16 148.11,98.01 150.99,92.69">
            <param key="origId" value="577_-1"/>
        </lane>
    </edge>
    <edge id=":35_3" function="internal">
        <lane id=":35_3_0" index="0" allow="pedestrian" speed="4.50" length="5.02" width="2.80" shape="144.40,91.47 145.47,92.47 146.48,92.76 147.43,92.32 148.32,91.17">
            <param key="origId" value="578_-2"/>
        </lane>
        <lane id=":35_3_1" index="1" disallow="pedestrian tram rail_urban rail rail_electric rail_fast ship" speed="6.49" length="11.52" width="3.35" shape="142.01,93.39 144.45,95.70 146.77,96.35 148.95,95.35 150.99,92.69">
            <param key="origId" value="578_-1"/>
        </lane>
    </edge>
    <edge id=":35_5" function="internal">
        <lane id=":35_5_0" index="0" disallow="pedestrian tram rail_urban rail rail_electric rail_fast ship" speed="13.89" length="13.95" width="3.35" shape="142.01,93.39 144.47,96.69 145.85,99.16 146.89,101.82 148.35,105.71">
            <param key="origId" value="579_-1"/>
        </lane>
    </edge>
    <edge id=":35_6" function="internal">
        <lane id=":35_6_0" index="0" disallow="pedestrian tram rail_urban rail rail_electric rail_fast ship" speed="3.74" length="1.51" width="3.35" shape="142.01,93.39 142.14,94.90">
            <param key="origId" value="580_-1"/>
        </lane>
    </edge>
    <edge id=":35_8" function="internal">
        <lane id=":35_8_0" index="0" disallow="pedestrian tram rail_urban rail rail_electric rail_fast ship" speed="3.74" length="3.38" width="3.35" shape="142.14,94.90 141.75,95.75 140.83,95.94 139.39,95.49">
            <param key="origId" value="580_-1"/>
        </lane>
    </edge>
    <edge id=":36_0" function="internal">
        <lane id=":36_0_0" index="0" allow="pedestrian" speed="5.51" length="9.38" width="2.80" shape="99.05,59.60 98.34,55.38 99.26,52.89 101.80,52.13 105.97,53.10">
            <param key="origId" value="570_-2"/>
        </lane>
        <lane id=":36_0_1" index="1" disallow="pedestrian tram rail_urban rail rail_electric rail_fast ship" speed="3.73" length="9.38" width="3.35" shape="101.29,57.50 101.04,56.01 101.36,55.13 102.26,54.86 103.73,55.20">
            <param key="origId" value="570_-1"/>
        </lane>
    </edge>
    <edge id=":37_0" function="internal">
        <lane id=":37_0_0" index="0" disallow="pedestrian tram rail_urban rail rail_electric rail_fast ship" speed="7.67" length="3.94" width="3.35" shape="347.20,1093.50 345.52,1089.94">
            <param key="origId" value="545_-1"/>
        </lane>
    </edge>
    <edge id=":37_1" function="internal">
        <lane id=":37_1_0" index="0" disallow="pedestrian tram rail_urban rail rail_electric rail_fast ship" speed="27.78" length="4.74" width="3.35" shape="343.06,1093.92 343.84,1092.75 344.53,1092.02 345.09,1091.24 345.52,1089.94">
            <param key="origId" value="546_-1"/>
        </lane>
    </edge>
    <edge id=":38_0" function="internal">
        <lane id=":38_0_0" index="0" disallow="pedestrian tram rail_urban rail rail_electric rail_fast ship" speed="20.84" length="9.28" width="3.35" shape="345.56,1089.75 345.99,1087.05 346.02,1085.17 345.76,1083.28 345.30,1080.56">
            <param key="origId" value="531_-1"/>
        </lane>
    </edge>
    <edge id=":38_1" function="internal">
        <lane id=":38_1_0" index="0" disallow="pedestrian tram rail_urban rail rail_electric rail_fast ship" speed="8.82" length="8.91" width="3.35" shape="345.56,1089.75 346.27,1087.07 347.24,1084.95 348.47,1083.36 349.95,1082.33">
            <param key="origId" value="532_-1"/>
        </lane>
    </edge>
    <edge id=":39_0" function="internal">
        <lane id=":39_0_0" index="0" disallow="pedestrian tram rail_urban rail rail_electric rail_fast ship" speed="8.11" length="4.51" width="3.35" shape="350.77,1078.04 353.70,1081.47">
            <param key="origId" value="533_-1"/>
        </lane>
    </edge>
    <edge id=":39_1" function="internal">
        <lane id=":39_1_0" index="0" disallow="pedestrian tram rail_urban rail rail_electric rail_fast ship" speed="7.62" length="3.77" width="3.35" shape="350.13,1082.25 351.13,1081.74 351.86,1081.42 352.62,1081.32 353.70,1081.47">
            <param key="origId" value="534_-1"/>
        </lane>
    </edge>
    <edge id=":4_0" function="internal">
        <lane id=":4_0_0" index="0" disallow="pedestrian tram rail_urban rail rail_electric rail_fast ship" speed="27.78" length="4.61" width="3.35" shape="344.62,1099.36 343.41,1099.97 342.70,1100.56 342.04,1101.27 341.02,1102.18">
            <param key="origId" value="547_-1"/>
        </lane>
    </edge>
    <edge id=":4_1" function="internal">
        <lane id=":4_1_0" index="0" disallow="pedestrian tram rail_urban rail rail_electric rail_fast ship" speed="4.88" length="2.37" width="3.35" shape="344.62,1099.36 342.33,1100.00">
            <param key="origId" value="548_-1"/>
        </lane>
    </edge>
    <edge id=":4_4" function="internal">
        <lane id=":4_4_0" index="0" disallow="pedestrian tram rail_urban rail rail_electric rail_fast ship" speed="4.88" length="5.23" width="3.35" shape="342.33,1100.00 341.14,1099.62 341.05,1098.24 342.04,1095.84">
            <param key="origId" value="548_-1"/>
        </lane>
    </edge>
    <edge id=":4_2" function="internal">
        <lane id=":4_2_0" index="0" allow="pedestrian" speed="11.39" length="4.23" width="2.80" shape="337.06,1097.12 337.89,1096.45 338.40,1095.94 338.82,1095.33 339.33,1094.40">
            <param key="origId" value="549_-2"/>
        </lane>
        <lane id=":4_2_1" index="1" disallow="pedestrian tram rail_urban rail rail_electric rail_fast ship" speed="13.26" length="4.23" width="3.35" shape="338.96,1099.54 340.08,1098.64 340.79,1097.93 341.35,1097.11 342.04,1095.84">
            <param key="origId" value="549_-1"/>
        </lane>
    </edge>
    <edge id=":40_0" function="internal">
        <lane id=":40_0_0" index="0" disallow="pedestrian tram rail_urban rail rail_electric rail_fast ship" speed="16.50" length="7.91" width="3.35" shape="353.89,1081.51 356.18,1081.84 357.77,1081.72 359.36,1081.29 361.64,1080.69">
            <param key="origId" value="535_-1"/>
        </lane>
    </edge>
    <edge id=":40_1" function="internal">
        <lane id=":40_1_0" index="0" disallow="pedestrian tram rail_urban rail rail_electric rail_fast ship" speed="7.99" length="7.36" width="3.35" shape="353.89,1081.51 356.05,1082.12 357.77,1082.96 359.05,1084.02 359.89,1085.31">
            <param key="origId" value="536_-1"/>
        </lane>
    </edge>
    <edge id=":41_0" function="internal">
        <lane id=":41_0_0" index="0" disallow="pedestrian tram rail_urban rail rail_electric rail_fast ship" speed="22.72" length="11.31" width="3.35" shape="357.10,1096.51 354.01,1096.57 351.69,1096.85 349.33,1097.52 346.13,1098.75">
            <param key="origId" value="543_-1"/>
        </lane>
    </edge>
    <edge id=":41_1" function="internal">
        <lane id=":41_1_0" index="0" disallow="pedestrian tram rail_urban rail rail_electric rail_fast ship" speed="8.58" length="10.60" width="3.35" shape="357.10,1096.51 353.34,1096.34 350.45,1095.81 348.43,1094.92 347.29,1093.68">
            <param key="origId" value="544_-1"/>
        </lane>
    </edge>
    <edge id=":42_0" function="internal">
        <lane id=":42_0_0" index="0" disallow="pedestrian tram rail_urban rail rail_electric rail_fast ship" speed="7.63" length="2.39" width="3.35" shape="363.04,1087.05 361.09,1088.43">
            <param key="origId" value="537_-1"/>
        </lane>
    </edge>
    <edge id=":42_1" function="internal">
        <lane id=":42_1_0" index="0" disallow="pedestrian tram rail_urban rail rail_electric rail_fast ship" speed="7.22" length="3.15" width="3.35" shape="359.97,1085.49 361.09,1088.43">
            <param key="origId" value="538_-1"/>
        </lane>
    </edge>
    <edge id=":43_0" function="internal">
        <lane id=":43_0_0" index="0" disallow="pedestrian tram rail_urban rail rail_electric rail_fast ship" speed="9.22" length="7.32" width="3.35" shape="361.05,1088.63 360.72,1090.73 360.83,1092.23 361.42,1093.64 362.53,1095.49">
            <param key="origId" value="539_-1"/>
        </lane>
    </edge>
    <edge id=":43_1" function="internal">
        <lane id=":43_1_0" index="0" disallow="pedestrian tram rail_urban rail rail_electric rail_fast ship" speed="10.03" length="6.76" width="3.35" shape="361.05,1088.63 360.69,1090.61 360.36,1092.00 359.70,1093.20 358.32,1094.58">
            <param key="origId" value="540_-1"/>
        </lane>
    </edge>
    <edge id=":44_0" function="internal">
        <lane id=":44_0_0" index="0" disallow="pedestrian tram rail_urban rail rail_electric rail_fast ship" speed="9.00" length="2.87" width="3.35" shape="358.95,1098.86 357.30,1096.51">
            <param key="origId" value="541_-1"/>
        </lane>
    </edge>
    <edge id=":44_1" function="internal">
        <lane id=":44_1_0" index="0" disallow="pedestrian tram rail_urban rail rail_electric rail_fast ship" speed="5.38" length="2.00" width="3.35" shape="358.17,1094.71 357.30,1096.51">
            <param key="origId" value="542_-1"/>
        </lane>
    </edge>
    <edge id=":5_0" function="internal">
        <lane id=":5_0_0" index="0" disallow="pedestrian tram rail_urban rail rail_electric rail_fast ship" speed="3.73" length="4.89" width="3.35" shape="289.32,1142.64 287.82,1142.75 286.97,1142.35 286.78,1141.43 287.26,1140.00"/>
    </edge>
    <edge id=":7_0" function="internal">
        <lane id=":7_0_0" index="0" allow="pedestrian" speed="13.89" length="6.70" width="2.80" shape="364.08,1106.72 362.55,1105.54 361.67,1104.48 360.77,1103.47 359.16,1102.42">
            <param key="origId" value="559_-2"/>
        </lane>
        <lane id=":7_0_1" index="1" disallow="pedestrian tram rail_urban rail rail_electric rail_fast ship" speed="13.89" length="6.70" width="3.35" shape="365.69,1104.10 364.09,1102.88 363.17,1101.80 362.22,1100.76 360.55,1099.67">
            <param key="origId" value="559_-1"/>
        </lane>
    </edge>
    <edge id=":7_2" function="internal">
        <lane id=":7_2_0" index="0" allow="pedestrian" speed="11.55" length="5.54" width="2.80" shape="365.90,1095.08 366.63,1096.31 367.18,1097.14 367.87,1097.83 369.04,1098.62">
            <param key="origId" value="560_-2"/>
        </lane>
        <lane id=":7_2_1" index="1" disallow="pedestrian tram rail_urban rail rail_electric rail_fast ship" speed="13.15" length="5.54" width="3.35" shape="363.28,1096.70 364.25,1098.29 364.98,1099.35 365.91,1100.22 367.43,1101.24">
            <param key="origId" value="560_-1"/>
        </lane>
    </edge>
    <edge id=":7_4" function="internal">
        <lane id=":7_4_0" index="0" disallow="pedestrian tram rail_urban rail rail_electric rail_fast ship" speed="4.96" length="3.05" width="3.35" shape="363.28,1096.70 364.59,1099.27 364.59,1099.43">
            <param key="origId" value="561_-1"/>
        </lane>
    </edge>
    <edge id=":7_5" function="internal">
        <lane id=":7_5_0" index="0" disallow="pedestrian tram rail_urban rail rail_electric rail_fast ship" speed="4.96" length="5.42" width="3.35" shape="364.59,1099.43 364.57,1100.62 363.22,1100.75 360.55,1099.67">
            <param key="origId" value="561_-1"/>
        </lane>
    </edge>
    <edge id=":9_0" function="internal">
        <lane id=":9_0_0" index="0" disallow="pedestrian tram rail_urban rail rail_electric rail_fast ship" speed="3.74" length="4.89" width="3.35" shape="495.40,1188.71 496.11,1190.04 496.08,1190.98 495.31,1191.52 493.81,1191.66"/>
    </edge>

    <edge id="-452" from="4" to="5" priority="1" type="driving" shape="339.99,1100.86 288.29,1141.32">
        <lane id="-452_0" index="0" disallow="pedestrian tram rail_urban rail rail_electric rail_fast ship" speed="27.78" length="65.65" width="3.35" shape="341.02,1102.18 289.32,1142.64" type="driving">
            <param key="origId" value="452_-1"/>
        </lane>
    </edge>
    <edge id="-455" from="9" to="7" priority="1" type="sidewalk|driving" shape="494.60,1190.18 487.97,1186.62 486.01,1185.29 485.36,1184.83 484.64,1184.32 483.85,1183.76 483.02,1183.17 482.15,1182.55 481.26,1181.91 480.35,1181.26 479.45,1180.61 478.55,1179.97 477.69,1179.35 476.86,1178.75 476.07,1178.19 475.36,1177.67 474.71,1177.21 397.91,1121.61 397.26,1121.15 396.53,1120.64 395.74,1120.10 394.89,1119.53 394.00,1118.94 393.09,1118.34 392.15,1117.73 391.22,1117.13 390.29,1116.55 389.38,1115.98 388.51,1115.44 387.69,1114.95 386.93,1114.49 386.25,1114.10 372.98,1106.53 369.58,1104.52 366.56,1102.67">
        <lane id="-455_0" index="0" allow="pedestrian" speed="13.89" length="155.42" width="2.80" shape="492.35,1194.36 485.51,1190.69 483.32,1189.21 482.62,1188.71 481.89,1188.20 481.10,1187.63 480.27,1187.04 479.38,1186.41 478.49,1185.77 477.58,1185.12 476.68,1184.47 475.78,1183.83 474.91,1183.20 474.09,1182.61 473.29,1182.04 472.58,1181.52 471.95,1181.07 395.12,1125.46 394.53,1125.04 393.83,1124.55 393.08,1124.03 392.26,1123.48 391.38,1122.90 390.49,1122.32 389.57,1121.72 388.68,1121.14 387.77,1120.58 386.87,1120.01 386.04,1119.50 385.24,1119.02 384.52,1118.58 383.90,1118.23 370.61,1110.65 367.13,1108.59 364.08,1106.72" type="sidewalk">
            <param key="origId" value="455_-2 454_-2 453_-2"/>
        </lane>
        <lane id="-455_1" index="1" disallow="pedestrian tram rail_urban rail rail_electric rail_fast ship" speed="13.89" length="155.42" width="3.35" shape="493.81,1191.66 487.10,1188.05 485.06,1186.67 484.39,1186.20 483.67,1185.69 482.88,1185.13 482.05,1184.53 481.17,1183.91 480.28,1183.27 479.37,1182.62 478.47,1181.97 477.57,1181.33 476.71,1180.71 475.88,1180.11 475.09,1179.55 474.38,1179.03 473.74,1178.57 396.93,1122.97 396.30,1122.52 395.58,1122.02 394.80,1121.49 393.96,1120.92 393.08,1120.34 392.17,1119.74 391.24,1119.14 390.32,1118.54 389.40,1117.97 388.49,1117.40 387.64,1116.87 386.83,1116.39 386.08,1115.93 385.42,1115.55 372.15,1107.98 368.72,1105.96 365.69,1104.10" type="driving">
            <param key="origId" value="455_-1 454_-1 453_-1"/>
        </lane>
    </edge>
    <edge id="-462" from="17" to="22" priority="1" type="sidewalk|driving" shape="141.91,177.42 136.77,183.61 135.34,185.35 135.21,185.50 133.78,187.23 50.23,287.99 49.73,288.61 49.18,289.30 48.60,290.06 47.98,290.88 47.34,291.73 46.70,292.61 46.04,293.52 45.40,294.42 44.77,295.32 44.16,296.19 43.59,297.04 43.05,297.84 42.57,298.58 42.15,299.25 20.92,333.60 18.44,339.70 18.15,340.44 17.83,341.26 17.50,342.16 17.14,343.12 16.77,344.12 16.39,345.16 16.01,346.20 15.63,347.25 15.26,348.28 14.90,349.29 14.56,350.25 14.24,351.16 13.95,352.00 13.70,352.75 4.95,378.71 4.72,379.46 4.51,380.30 4.32,381.23 4.14,382.22 3.97,383.26 3.81,384.34 3.66,385.43 3.53,386.53 3.39,387.61 3.27,388.66 3.15,389.66 3.03,390.61 2.91,391.48 2.80,392.26 2.67,393.05 2.52,393.94 2.36,394.90 2.18,395.93 2.00,397.00 1.81,398.10 1.63,399.20 1.44,400.30 1.27,401.37 1.12,402.40 0.98,403.37 0.86,404.26 0.77,405.06 0.69,405.85 0.60,406.73 0.52,407.68 0.43,408.69 0.35,409.76 0.27,410.85 0.20,411.95 0.13,413.06 0.08,414.15 0.04,415.21 0.01,416.23 0.00,417.19 0.01,418.07 0.03,418.86 0.87,435.08 0.93,435.87 1.00,436.75 1.10,437.70 1.22,438.71 1.36,439.77 1.51,440.85 1.68,441.95 1.86,443.04 2.05,444.12 2.24,445.17 2.43,446.16 2.63,447.10 2.83,447.96 3.02,448.73 11.12,479.11 53.00,576.36 53.31,577.09 53.67,577.90 54.05,578.79 54.45,579.73 54.88,580.71 55.32,581.71 55.76,582.73 56.20,583.76 56.64,584.76 57.07,585.74 57.48,586.68 57.86,587.56 58.22,588.37 58.53,589.10 76.14,629.31 76.47,629.99 76.87,630.74 77.33,631.55 77.84,632.39 78.39,633.27 78.96,634.15 79.54,635.03 80.11,635.88 80.66,636.71 81.18,637.49 81.65,638.21 82.05,638.85 88.38,649.06 90.49,652.46 161.48,766.98 163.59,770.38 163.70,770.55 164.13,771.26 164.64,772.09 165.19,773.01 165.76,773.95 166.31,774.86 166.81,775.70 167.24,776.41 218.75,861.45 220.82,864.88 237.17,891.86 237.58,892.54 238.04,893.30 238.54,894.12 239.07,895.00 239.62,895.91 240.19,896.85 240.77,897.80 241.34,898.76 241.91,899.70 242.47,900.61 243.00,901.49 243.49,902.31 243.95,903.07 244.36,903.75 253.23,918.38 253.67,919.11 254.20,919.99 254.77,920.93 255.34,921.87 255.87,922.74 256.31,923.47 268.22,942.89 268.64,943.57 269.12,944.36 269.65,945.22 270.20,946.13 270.77,947.07 271.35,948.01 271.90,948.92 272.42,949.78 272.90,950.57 273.31,951.26 273.42,951.43 275.47,954.86 279.36,961.36 279.77,962.05 280.22,962.81 280.72,963.63 281.24,964.51 281.79,965.42 282.35,966.37 282.93,967.32 283.50,968.28 284.06,969.22 284.61,970.14 285.14,971.02 285.63,971.84 286.08,972.60 286.49,973.28 340.53,1063.62 344.85,1071.89">
        <lane id="-462_0" index="0" allow="pedestrian" speed="13.89" length="1025.50" width="2.80" shape="145.56,180.45 140.43,186.64 139.00,188.37 138.87,188.53 137.44,190.26 53.89,291.02 53.44,291.58 52.93,292.22 52.38,292.93 51.77,293.74 51.16,294.56 50.54,295.40 49.90,296.29 49.28,297.16 48.66,298.05 48.08,298.88 47.53,299.69 47.01,300.46 46.57,301.14 46.18,301.76 25.17,335.76 22.84,341.48 22.57,342.17 22.27,342.94 21.95,343.81 21.59,344.78 21.23,345.76 20.85,346.79 20.47,347.82 20.10,348.86 19.73,349.88 19.38,350.88 19.04,351.83 18.73,352.72 18.45,353.53 18.20,354.27 9.45,380.22 9.30,380.73 9.14,381.35 8.98,382.13 8.82,383.03 8.66,383.99 8.51,385.01 8.37,386.03 8.24,387.11 8.11,388.19 7.99,389.21 7.86,390.24 7.74,391.23 7.61,392.14 7.50,392.98 7.36,393.83 7.20,394.73 7.04,395.70 6.86,396.73 6.68,397.80 6.49,398.89 6.31,399.99 6.13,401.08 5.97,402.09 5.82,403.08 5.68,404.03 5.57,404.85 5.49,405.56 5.42,406.33 5.33,407.17 5.25,408.09 5.16,409.08 5.09,410.11 5.01,411.17 4.94,412.25 4.87,413.32 4.83,414.35 4.79,415.37 4.76,416.33 4.75,417.19 4.76,417.98 4.78,418.68 5.61,434.83 5.67,435.50 5.73,436.31 5.82,437.17 5.93,438.12 6.07,439.13 6.21,440.16 6.37,441.20 6.54,442.24 6.73,443.29 6.91,444.30 7.09,445.22 7.27,446.07 7.45,446.85 7.62,447.55 15.62,477.55 57.36,574.48 57.67,575.20 58.03,576.00 58.42,576.93 58.81,577.85 59.23,578.80 59.67,579.81 60.12,580.86 60.56,581.87 60.99,582.85 61.42,583.84 61.84,584.79 62.21,585.65 62.58,586.48 62.89,587.22 80.49,627.40 80.70,627.83 81.03,628.45 81.42,629.14 81.88,629.90 82.40,630.72 82.94,631.55 83.50,632.40 84.06,633.25 84.62,634.08 85.14,634.87 85.65,635.65 86.09,636.35 92.42,646.56 94.53,649.96 165.52,764.48 167.62,767.87 167.75,768.07 168.18,768.79 168.70,769.63 169.26,770.56 169.82,771.49 170.38,772.42 170.88,773.26 171.30,773.95 222.81,858.99 224.88,862.42 241.23,889.40 241.65,890.08 242.10,890.83 242.60,891.66 243.14,892.55 243.68,893.45 244.25,894.38 244.84,895.35 245.41,896.32 245.96,897.22 246.53,898.14 247.07,899.05 247.56,899.86 248.02,900.61 248.42,901.29 257.29,915.92 257.74,916.66 258.27,917.53 258.83,918.47 259.40,919.40 259.93,920.28 260.37,921.00 272.27,940.41 272.69,941.09 273.17,941.88 273.70,942.75 274.26,943.67 274.82,944.59 275.40,945.53 275.96,946.46 276.48,947.32 276.97,948.12 277.37,948.80 277.45,948.92 279.55,952.42 283.44,958.92 283.86,959.63 284.29,960.36 284.79,961.19 285.32,962.07 285.87,962.99 286.42,963.93 287.00,964.87 287.58,965.85 288.14,966.79 288.68,967.70 289.21,968.58 289.71,969.41 290.16,970.16 290.56,970.83 344.68,1061.30 349.06,1069.70" type="sidewalk">
            <param key="origId" value="462_-2 461_-2 460_-2 459_-2 458_-2 457_-2 456_-2 467_-2 466_-2 465_-2"/>
        </lane>
        <lane id="-462_1" index="1" disallow="pedestrian tram rail_urban rail rail_electric rail_fast ship" speed="13.89" length="1025.50" width="3.35" shape="143.20,178.49 138.06,184.68 136.63,186.42 136.50,186.57 135.07,188.30 51.52,289.06 51.04,289.66 50.50,290.33 49.93,291.07 49.32,291.89 48.69,292.73 48.06,293.59 47.40,294.50 46.77,295.39 46.14,296.28 45.54,297.14 44.98,297.97 44.45,298.76 43.98,299.48 43.57,300.14 22.42,334.36 19.99,340.33 19.71,341.05 19.40,341.85 19.07,342.74 18.71,343.70 18.34,344.70 17.96,345.73 17.58,346.77 17.21,347.82 16.84,348.84 16.48,349.85 16.14,350.81 15.82,351.71 15.54,352.54 15.29,353.28 6.54,379.24 6.33,379.91 6.14,380.67 5.96,381.55 5.79,382.50 5.63,383.52 5.47,384.58 5.32,385.64 5.19,386.74 5.05,387.81 4.93,388.85 4.81,389.86 4.69,390.83 4.57,391.71 4.46,392.51 4.32,393.33 4.17,394.22 4.01,395.18 3.83,396.21 3.65,397.28 3.46,398.38 3.28,399.48 3.09,400.57 2.93,401.62 2.78,402.64 2.64,403.60 2.52,404.47 2.44,405.24 2.36,406.02 2.27,406.88 2.19,407.82 2.10,408.83 2.02,409.88 1.94,410.96 1.87,412.06 1.80,413.15 1.75,414.22 1.71,415.27 1.68,416.26 1.68,417.19 1.68,418.04 1.70,418.80 2.54,434.99 2.60,435.74 2.67,436.60 2.76,437.51 2.88,438.50 3.02,439.55 3.17,440.61 3.33,441.69 3.51,442.76 3.70,443.83 3.89,444.86 4.07,445.83 4.27,446.74 4.46,447.57 4.64,448.31 12.71,478.56 54.54,575.70 54.85,576.42 55.21,577.23 55.59,578.13 55.99,579.07 56.41,580.04 56.86,581.04 57.30,582.07 57.74,583.09 58.17,584.09 58.60,585.07 59.02,586.01 59.39,586.89 59.76,587.70 60.07,588.44 77.67,628.64 77.96,629.23 78.34,629.93 78.77,630.70 79.27,631.51 79.80,632.37 80.36,633.23 80.93,634.10 81.50,634.95 82.06,635.78 82.58,636.57 83.06,637.31 83.47,637.97 89.80,648.18 91.91,651.58 162.90,766.10 165.01,769.50 165.13,769.67 165.56,770.39 166.07,771.22 166.62,772.15 167.19,773.08 167.75,774.00 168.25,774.84 168.67,775.54 220.18,860.58 222.25,864.01 238.60,890.99 239.01,891.67 239.47,892.43 239.97,893.25 240.50,894.13 241.05,895.04 241.62,895.98 242.20,896.94 242.78,897.90 243.34,898.83 243.90,899.74 244.44,900.63 244.93,901.45 245.38,902.20 245.79,902.88 254.66,917.51 255.10,918.25 255.63,919.12 256.20,920.06 256.77,921.00 257.30,921.87 257.74,922.60 269.65,942.01 270.07,942.70 270.55,943.49 271.08,944.35 271.63,945.26 272.20,946.20 272.78,947.14 273.33,948.05 273.85,948.91 274.34,949.71 274.74,950.39 274.84,950.55 276.91,954.00 280.80,960.50 281.21,961.20 281.66,961.95 282.16,962.77 282.68,963.65 283.23,964.56 283.79,965.51 284.36,966.46 284.94,967.42 285.50,968.36 286.05,969.28 286.58,970.16 287.07,970.98 287.52,971.74 287.93,972.42 341.99,1062.80 346.34,1071.12" type="driving">
            <param key="origId" value="462_-1 461_-1 460_-1 459_-1 458_-1 457_-1 456_-1 467_-1 466_-1 465_-1"/>
        </lane>
    </edge>
    <edge id="-463" from="18" to="19" priority="1" type="sidewalk|driving" shape="200.72,130.21 200.85,130.35 201.40,130.91 202.02,131.53 202.69,132.21 203.40,132.92 204.15,133.67 204.91,134.43 205.70,135.21 206.48,135.98 207.25,136.74 208.01,137.48 208.73,138.18 209.41,138.84 210.04,139.45 210.61,139.99 245.46,173.13">
        <lane id="-463_0" index="0" allow="pedestrian" speed="13.89" length="61.73" width="2.80" shape="204.20,126.98 204.77,127.57 205.39,128.18 206.06,128.86 206.76,129.56 207.51,130.31 208.26,131.06 209.04,131.83 209.82,132.60 210.58,133.35 211.32,134.08 212.04,134.77 212.72,135.43 213.33,136.02 213.88,136.55 248.73,169.69" type="sidewalk">
            <param key="origId" value="463_-2"/>
        </lane>
        <lane id="-463_1" index="1" disallow="pedestrian tram rail_urban rail rail_electric rail_fast ship" speed="13.89" length="61.73" width="3.35" shape="202.05,129.18 202.59,129.73 203.21,130.35 203.88,131.03 204.58,131.74 205.33,132.49 206.09,133.24 206.88,134.02 207.66,134.79 208.42,135.54 209.18,136.28 209.90,136.98 210.58,137.64 211.20,138.24 211.76,138.78 246.61,171.92" type="driving">
            <param key="origId" value="463_-1"/>
        </lane>
    </edge>
    <edge id="-464" from="20" to="464.end" priority="1" type="sidewalk" shape="189.55,61.26 174.87,57.90 171.22,60.56 152.45,93.52">
        <lane id="-464_0" index="0" allow="pedestrian" speed="13.89" length="55.36" width="3.20" shape="189.19,62.82 175.22,59.62 172.44,61.65 153.84,94.31" type="sidewalk">
            <param key="origId" value="464_-1"/>
        </lane>
    </edge>
    <edge id="-468" from="24" to="468.end" priority="1" type="sidewalk" shape="166.94,176.64 177.67,156.68">
        <lane id="-468_0" index="0" allow="pedestrian" speed="13.89" length="22.66" width="3.20" shape="165.53,175.88 176.26,155.92" type="sidewalk">
            <param key="origId" value="468_-1"/>
        </lane>
    </edge>
    <edge id="-474" from="31" to="32" priority="1" type="sidewalk|driving" shape="369.96,1079.26 374.22,1075.84 374.84,1075.36 375.53,1074.82 376.29,1074.25 377.10,1073.64 377.95,1073.01 378.82,1072.36 379.71,1071.71 380.59,1071.05 381.46,1070.40 382.31,1069.77 383.11,1069.16 383.87,1068.57 384.55,1068.03 385.16,1067.54 399.79,1055.38">
        <lane id="-474_0" index="0" allow="pedestrian" speed="13.89" length="38.61" width="2.80" shape="366.99,1075.56 371.25,1072.13 371.92,1071.61 372.64,1071.05 373.44,1070.45 374.26,1069.83 375.11,1069.20 376.00,1068.54 376.88,1067.89 377.74,1067.25 378.62,1066.59 379.46,1065.97 380.21,1065.40 380.94,1064.83 381.59,1064.32 382.15,1063.86 397.10,1051.44" type="sidewalk">
            <param key="origId" value="474_-2"/>
        </lane>
        <lane id="-474_1" index="1" disallow="pedestrian tram rail_urban rail rail_electric rail_fast ship" speed="13.89" length="38.61" width="3.35" shape="368.91,1077.95 373.17,1074.53 373.81,1074.04 374.51,1073.49 375.28,1072.91 376.10,1072.30 376.95,1071.67 377.82,1071.01 378.71,1070.36 379.59,1069.71 380.46,1069.06 381.30,1068.43 382.09,1067.83 382.84,1067.25 383.50,1066.72 384.10,1066.24 399.06,1053.81" type="driving">
            <param key="origId" value="474_-1"/>
        </lane>
    </edge>
    <edge id="-475" from="24" to="2" priority="1" type="sidewalk|driving" shape="168.10,187.98 176.86,195.28 177.47,195.79 178.15,196.35 178.89,196.97 179.68,197.62 180.50,198.30 181.34,199.01 182.20,199.72 183.05,200.43 183.90,201.13 184.72,201.82 185.51,202.47 186.24,203.09 186.93,203.65 187.54,204.16 211.69,224.26 212.13,224.40 212.91,224.43 213.96,224.38 215.19,224.27 216.51,224.11 217.84,223.94 219.09,223.75 220.17,223.59 221.00,223.46 221.49,223.39 221.86,222.95 222.38,222.34 222.94,221.66 223.56,220.92 224.22,220.14 224.91,219.32 225.61,218.48 226.33,217.63 227.05,216.78 227.75,215.93 228.44,215.12 229.10,214.33 229.71,213.60 230.28,212.92 230.79,212.31 234.34,208.08 236.92,205.03 247.56,192.44 248.07,191.84 248.65,191.16 249.27,190.43 249.93,189.65 250.62,188.83 251.33,188.00 252.05,187.15 252.77,186.30 253.48,185.46 254.18,184.65 254.84,183.87 255.46,183.14 256.04,182.46 256.55,181.86 284.78,148.79 285.29,148.18 285.87,147.51 286.49,146.78 287.15,146.00 287.84,145.18 288.55,144.34 289.27,143.49 289.99,142.64 290.70,141.80 291.39,140.99 292.05,140.21 292.67,139.47 293.24,138.79 293.75,138.19 330.00,95.01 332.58,91.95 337.81,85.75 338.32,85.14 338.90,84.47 339.52,83.74 340.19,82.96 340.88,82.15 341.60,81.32 342.32,80.47 343.05,79.63 343.77,78.80 344.46,77.99 345.13,77.21 345.76,76.49 346.34,75.81 346.85,75.21 347.42,74.55 348.11,73.75 348.80,72.96 349.39,72.31 349.93,71.73 350.54,71.09 351.20,70.39 351.90,69.65 352.63,68.87 353.39,68.08 354.16,67.27 354.93,66.47 355.68,65.67 356.42,64.90 357.13,64.16 357.79,63.47 358.41,62.83 358.96,62.26 359.52,61.69 360.20,61.03 360.79,60.50 361.41,59.99 362.08,59.43 362.82,58.82 363.60,58.16 364.42,57.48 365.27,56.78 366.12,56.08 366.98,55.38 367.84,54.70 368.67,54.04 369.48,53.42 370.25,52.85 370.96,52.34 371.62,51.89 380.35,46.21">
        <lane id="-475_0" index="0" allow="pedestrian" speed="13.89" length="301.61" width="2.80" shape="171.14,184.33 179.90,191.63 180.50,192.13 181.19,192.70 181.92,193.32 182.71,193.96 183.55,194.66 184.39,195.36 185.23,196.07 186.08,196.77 186.94,197.48 187.76,198.17 188.56,198.82 189.28,199.44 189.95,199.98 190.58,200.51 213.69,219.74 213.13,219.66 213.63,219.64 214.69,219.55 215.92,219.40 217.18,219.24 218.38,219.05 218.60,219.02 219.27,218.64 219.29,218.62 219.93,217.86 220.59,217.08 221.27,216.27 221.97,215.42 222.71,214.56 223.40,213.73 224.11,212.88 224.81,212.06 225.45,211.28 226.07,210.55 226.64,209.87 227.15,209.26 230.71,205.02 233.29,201.96 243.93,189.37 244.45,188.76 245.03,188.08 245.65,187.36 246.30,186.59 247.00,185.76 247.71,184.92 248.43,184.08 249.14,183.23 249.87,182.37 250.57,181.56 251.22,180.80 251.84,180.06 252.42,179.38 252.94,178.78 281.17,145.71 281.67,145.10 282.26,144.42 282.87,143.71 283.52,142.94 284.21,142.12 284.92,141.27 285.65,140.42 286.36,139.57 287.08,138.73 287.77,137.92 288.42,137.15 289.03,136.42 289.61,135.73 290.12,135.12 326.36,91.96 328.95,88.89 334.18,82.69 334.70,82.06 335.29,81.38 335.91,80.65 336.58,79.87 337.28,79.05 337.99,78.23 338.72,77.38 339.46,76.52 340.17,75.70 340.85,74.90 341.54,74.10 342.17,73.38 342.72,72.73 343.24,72.12 343.82,71.45 344.52,70.64 345.25,69.80 345.89,69.10 346.47,68.47 347.09,67.82 347.75,67.13 348.44,66.40 349.18,65.60 349.96,64.80 350.73,63.99 351.49,63.20 352.23,62.40 352.99,61.61 353.70,60.87 354.37,60.18 355.00,59.53 355.56,58.95 356.17,58.32 356.95,57.56 357.69,56.90 358.38,56.33 359.05,55.77 359.77,55.17 360.55,54.52 361.39,53.82 362.25,53.11 363.11,52.40 364.01,51.68 364.89,50.98 365.75,50.30 366.62,49.63 367.45,49.01 368.23,48.45 368.99,47.94 377.76,42.23" type="sidewalk">
            <param key="origId" value="475_-2 451_-2 450_-2"/>
        </lane>
        <lane id="-475_1" index="1" disallow="pedestrian tram rail_urban rail rail_electric rail_fast ship" speed="13.89" length="301.61" width="3.35" shape="169.17,186.69 177.93,193.99 178.54,194.50 179.22,195.06 179.96,195.68 180.75,196.33 181.58,197.02 182.41,197.72 183.27,198.43 184.12,199.14 184.97,199.84 185.79,200.53 186.58,201.18 187.31,201.80 187.99,202.36 188.61,202.87 212.51,222.76 212.42,222.73 212.89,222.76 213.84,222.71 215.01,222.60 216.30,222.45 217.61,222.28 218.84,222.09 219.92,221.93 220.42,221.86 220.77,221.65 221.10,221.26 221.65,220.59 222.28,219.84 222.94,219.06 223.63,218.24 224.33,217.40 225.05,216.55 225.76,215.71 226.47,214.85 227.16,214.04 227.81,213.26 228.43,212.53 229.00,211.84 229.51,211.23 233.06,207.00 235.64,203.95 246.28,191.36 246.79,190.75 247.37,190.07 247.99,189.35 248.65,188.57 249.34,187.75 250.05,186.91 250.77,186.07 251.49,185.22 252.21,184.37 252.91,183.56 253.56,182.79 254.18,182.05 254.76,181.37 255.28,180.77 283.51,147.70 284.01,147.09 284.60,146.42 285.21,145.70 285.87,144.92 286.56,144.10 287.27,143.26 287.99,142.41 288.71,141.56 289.42,140.72 290.11,139.91 290.77,139.13 291.39,138.39 291.96,137.71 292.47,137.11 328.72,93.93 331.30,90.87 336.53,84.67 337.04,84.05 337.63,83.38 338.25,82.65 338.92,81.87 339.61,81.06 340.33,80.23 341.05,79.38 341.79,78.53 342.50,77.71 343.19,76.90 343.86,76.11 344.49,75.39 345.06,74.72 345.58,74.12 346.15,73.46 346.85,72.65 347.55,71.85 348.16,71.18 348.71,70.58 349.32,69.94 349.98,69.24 350.68,68.50 351.42,67.72 352.18,66.92 352.95,66.11 353.72,65.32 354.47,64.52 355.21,63.74 355.92,63.00 356.58,62.31 357.21,61.67 357.76,61.09 358.34,60.50 359.05,59.81 359.70,59.23 360.34,58.70 361.01,58.14 361.75,57.53 362.52,56.88 363.35,56.19 364.21,55.49 365.06,54.78 365.93,54.07 366.80,53.39 367.64,52.72 368.47,52.08 369.26,51.50 370.00,50.97 370.69,50.50 379.44,44.81" type="driving">
            <param key="origId" value="475_-1 451_-1 450_-1"/>
        </lane>
    </edge>
    <edge id="-477" from="17" to="24" priority="1" type="sidewalk|driving" shape="152.43,176.09 153.58,176.93 156.82,179.27 158.59,180.55">
        <lane id="-477_0" index="0" allow="pedestrian" speed="13.89" length="7.59" width="2.80" shape="155.23,172.25 156.37,173.08 159.60,175.42 161.37,176.70" type="sidewalk">
            <param key="origId" value="477_-2 476_-2"/>
        </lane>
        <lane id="-477_1" index="1" disallow="pedestrian tram rail_urban rail rail_electric rail_fast ship" speed="13.89" length="7.59" width="3.35" shape="153.42,174.74 154.56,175.57 157.80,177.91 159.57,179.19" type="driving">
            <param key="origId" value="477_-1 476_-1"/>
        </lane>
    </edge>
    <edge id="-478" from="34" to="17" priority="1" type="sidewalk|driving" shape="152.38,124.12 152.99,139.09 153.01,139.88 153.00,140.75 152.97,141.71 152.92,142.72 152.84,143.77 152.75,144.86 152.64,145.96 152.51,147.06 152.37,148.14 152.22,149.19 152.06,150.19 151.89,151.13 151.71,151.98 151.53,152.75 147.99,166.31">
        <lane id="-478_0" index="0" allow="pedestrian" speed="13.89" length="43.72" width="2.80" shape="157.13,123.93 157.74,138.90 157.76,139.85 157.75,140.85 157.72,141.90 157.66,143.02 157.58,144.15 157.48,145.29 157.36,146.48 157.22,147.64 157.08,148.78 156.92,149.90 156.74,150.99 156.55,152.04 156.35,153.01 156.14,153.89 152.59,167.51" type="sidewalk">
            <param key="origId" value="478_-2"/>
        </lane>
        <lane id="-478_1" index="1" disallow="pedestrian tram rail_urban rail rail_electric rail_fast ship" speed="13.89" length="43.72" width="3.35" shape="154.05,124.05 154.66,139.02 154.68,139.87 154.67,140.79 154.64,141.78 154.59,142.83 154.51,143.90 154.42,145.01 154.31,146.14 154.17,147.27 154.03,148.37 153.88,149.44 153.71,150.47 153.53,151.45 153.35,152.34 153.16,153.15 149.61,166.73" type="driving">
            <param key="origId" value="478_-1"/>
        </lane>
    </edge>
    <edge id="-479" from="35" to="34" priority="1" type="sidewalk|driving" shape="146.79,106.32 151.03,117.07">
        <lane id="-479_0" index="0" allow="pedestrian" speed="13.89" length="11.56" width="2.80" shape="151.21,104.58 155.45,115.33" type="sidewalk">
            <param key="origId" value="479_-2"/>
        </lane>
        <lane id="-479_1" index="1" disallow="pedestrian tram rail_urban rail rail_electric rail_fast ship" speed="13.89" length="11.56" width="3.35" shape="148.35,105.71 152.59,116.46" type="driving">
            <param key="origId" value="479_-1"/>
        </lane>
    </edge>
    <edge id="-480" from="36" to="35" priority="1" type="sidewalk|driving" shape="102.79,56.65 111.30,65.71 111.85,66.29 112.46,66.92 113.14,67.60 113.86,68.32 114.62,69.07 115.41,69.84 116.21,70.61 117.01,71.38 117.80,72.14 118.57,72.88 119.32,73.58 120.01,74.24 120.66,74.85 121.24,75.39 121.80,75.91 122.44,76.48 123.14,77.10 123.89,77.76 124.68,78.44 125.48,79.13 126.29,79.84 127.09,80.54 127.87,81.22 128.61,81.88 129.31,82.51 129.94,83.09 130.49,83.61 131.06,84.17 131.69,84.79 132.37,85.46 133.09,86.18 133.84,86.94 134.61,87.72 135.39,88.52 136.16,89.32 136.91,90.11 137.64,90.89 138.33,91.64 138.97,92.35 139.54,93.02 140.05,93.63 140.70,94.44">
        <lane id="-480_0" index="0" allow="pedestrian" speed="13.89" length="54.24" width="2.80" shape="105.97,53.10 114.76,62.46 115.28,63.00 115.84,63.59 116.50,64.24 117.21,64.95 117.95,65.68 118.71,66.43 119.50,67.19 120.30,67.96 121.09,68.72 121.84,69.43 122.58,70.13 123.28,70.79 123.90,71.38 124.47,71.91 124.99,72.39 125.59,72.93 126.28,73.54 127.01,74.18 127.78,74.84 128.60,75.55 129.42,76.27 130.21,76.96 131.01,77.66 131.78,78.34 132.51,79.00 133.18,79.62 133.79,80.19 134.39,80.78 135.02,81.41 135.72,82.09 136.46,82.83 137.22,83.60 138.00,84.39 138.80,85.21 139.59,86.04 140.37,86.85 141.12,87.66 141.84,88.44 142.54,89.22 143.17,89.96 143.73,90.62 144.40,91.47" type="sidewalk">
            <param key="origId" value="480_-2"/>
        </lane>
        <lane id="-480_1" index="1" disallow="pedestrian tram rail_urban rail rail_electric rail_fast ship" speed="13.89" length="54.24" width="3.35" shape="103.73,55.20 112.52,64.56 113.06,65.13 113.65,65.74 114.32,66.42 115.04,67.13 115.79,67.87 116.58,68.64 117.37,69.40 118.17,70.17 118.96,70.93 119.72,71.66 120.47,72.36 121.16,73.02 121.80,73.63 122.38,74.16 122.93,74.67 123.55,75.23 124.25,75.84 124.99,76.50 125.77,77.17 126.58,77.87 127.39,78.58 128.19,79.28 128.98,79.96 129.73,80.63 130.44,81.27 131.08,81.86 131.65,82.40 132.23,82.98 132.87,83.60 133.55,84.27 134.28,85.00 135.03,85.76 135.81,86.55 136.59,87.35 137.37,88.16 138.13,88.96 138.87,89.75 139.57,90.51 140.23,91.25 140.82,91.94 141.35,92.57 142.01,93.39" type="driving">
            <param key="origId" value="480_-1"/>
        </lane>
    </edge>
    <edge id="-481" from="37" to="38" priority="1" type="driving" shape="346.78,1092.17 346.82,1091.97">
        <lane id="-481_0" index="0" disallow="pedestrian tram rail_urban rail rail_electric rail_fast ship" speed="27.78" length="0.20" width="3.35" shape="345.52,1089.94 345.56,1089.75" type="driving">
            <param key="origId" value="481_-1"/>
        </lane>
    </edge>
    <edge id="-482" from="38" to="39" priority="1" type="driving" shape="350.99,1083.69 351.18,1083.60">
        <lane id="-482_0" index="0" disallow="pedestrian tram rail_urban rail rail_electric rail_fast ship" speed="27.78" length="0.20" width="3.35" shape="349.95,1082.33 350.13,1082.25" type="driving">
            <param key="origId" value="482_-1"/>
        </lane>
    </edge>
    <edge id="-483" from="39" to="40" priority="1" type="driving" shape="353.33,1083.10 353.52,1083.14">
        <lane id="-483_0" index="0" disallow="pedestrian tram rail_urban rail rail_electric rail_fast ship" speed="27.78" length="0.20" width="3.35" shape="353.70,1081.47 353.89,1081.51" type="driving">
            <param key="origId" value="483_-1"/>
        </lane>
    </edge>
    <edge id="-484" from="4" to="37" priority="1" type="sidewalk|driving" shape="343.52,1096.63 344.54,1094.71">
        <lane id="-484_0" index="0" allow="pedestrian" speed="27.78" length="2.17" width="2.80" shape="339.33,1094.40 340.35,1092.48" type="sidewalk">
            <param key="origId" value="484_-2"/>
        </lane>
        <lane id="-484_1" index="1" disallow="pedestrian tram rail_urban rail rail_electric rail_fast ship" speed="27.78" length="2.17" width="3.35" shape="342.04,1095.84 343.06,1093.92" type="driving">
            <param key="origId" value="484_-1"/>
        </lane>
    </edge>
    <edge id="-485" from="41" to="4" priority="1" type="sidewalk|driving" shape="346.32,1096.87 343.99,1097.81">
        <lane id="-485_0" index="0" allow="pedestrian" speed="27.78" length="1.63" width="2.80" shape="347.28,1101.60 345.77,1102.22" type="sidewalk">
            <param key="origId" value="485_-2"/>
        </lane>
        <lane id="-485_1" index="1" disallow="pedestrian tram rail_urban rail rail_electric rail_fast ship" speed="27.78" length="1.63" width="3.35" shape="346.13,1098.75 344.62,1099.36" type="driving">
            <param key="origId" value="485_-1"/>
        </lane>
    </edge>
    <edge id="-486" from="38" to="22" priority="1" type="sidewalk|driving" shape="347.01,1080.66 346.40,1076.64">
        <lane id="-486_0" index="0" allow="pedestrian" speed="13.89" length="3.71" width="2.80" shape="342.26,1081.02 341.70,1077.35" type="sidewalk">
            <param key="origId" value="486_-2"/>
        </lane>
        <lane id="-486_1" index="1" disallow="pedestrian tram rail_urban rail rail_electric rail_fast ship" speed="13.89" length="3.71" width="3.35" shape="345.30,1080.56 344.74,1076.89" type="driving">
            <param key="origId" value="486_-1"/>
        </lane>
    </edge>
    <edge id="-487" from="22" to="39" priority="1" type="sidewalk|driving" shape="348.57,1078.01 349.49,1079.11">
        <lane id="-487_0" index="0" allow="pedestrian" speed="13.89" length="1.43" width="2.80" shape="352.21,1074.96 353.13,1076.06" type="sidewalk">
            <param key="origId" value="487_-2"/>
        </lane>
        <lane id="-487_1" index="1" disallow="pedestrian tram rail_urban rail rail_electric rail_fast ship" speed="13.89" length="1.43" width="3.35" shape="349.85,1076.94 350.77,1078.04" type="driving">
            <param key="origId" value="487_-1"/>
        </lane>
    </edge>
    <edge id="-488" from="31" to="42" priority="1" type="sidewalk|driving" shape="361.99,1085.70 361.86,1085.85">
        <lane id="-488_0" index="0" allow="pedestrian" speed="27.78" length="0.20" width="2.80" shape="365.49,1088.91 365.36,1089.06" type="sidewalk">
            <param key="origId" value="488_-2"/>
        </lane>
        <lane id="-488_1" index="1" disallow="pedestrian tram rail_urban rail rail_electric rail_fast ship" speed="27.78" length="0.20" width="3.35" shape="363.17,1086.90 363.04,1087.05" type="driving">
            <param key="origId" value="488_-1"/>
        </lane>
    </edge>
    <edge id="-489" from="40" to="31" priority="1" type="sidewalk|driving" shape="361.50,1082.44 364.36,1081.81">
        <lane id="-489_0" index="0" allow="pedestrian" speed="27.78" length="2.18" width="2.80" shape="360.98,1077.69 363.11,1077.22" type="sidewalk">
            <param key="origId" value="489_-2"/>
        </lane>
        <lane id="-489_1" index="1" disallow="pedestrian tram rail_urban rail rail_electric rail_fast ship" speed="27.78" length="2.18" width="3.35" shape="361.64,1080.69 363.77,1080.22" type="driving">
            <param key="origId" value="489_-1"/>
        </lane>
    </edge>
    <edge id="-490" from="43" to="7" priority="1" type="sidewalk|driving" shape="361.11,1096.37 361.86,1097.58">
        <lane id="-490_0" index="0" allow="pedestrian" speed="13.89" length="1.42" width="2.80" shape="365.15,1093.87 365.90,1095.08" type="sidewalk">
            <param key="origId" value="490_-2"/>
        </lane>
        <lane id="-490_1" index="1" disallow="pedestrian tram rail_urban rail rail_electric rail_fast ship" speed="13.89" length="1.42" width="3.35" shape="362.53,1095.49 363.28,1096.70" type="driving">
            <param key="origId" value="490_-1"/>
        </lane>
    </edge>
    <edge id="-491" from="7" to="44" priority="1" type="sidewalk|driving" shape="361.31,1098.18 359.71,1097.37">
        <lane id="-491_0" index="0" allow="pedestrian" speed="13.89" length="1.79" width="2.80" shape="359.16,1102.42 357.56,1101.61" type="sidewalk">
            <param key="origId" value="491_-2"/>
        </lane>
        <lane id="-491_1" index="1" disallow="pedestrian tram rail_urban rail rail_electric rail_fast ship" speed="13.89" length="1.79" width="3.35" shape="360.55,1099.67 358.95,1098.86" type="driving">
            <param key="origId" value="491_-1"/>
        </lane>
    </edge>
    <edge id="-492" from="42" to="43" priority="1" type="driving" shape="358.87,1090.85 358.83,1091.04">
        <lane id="-492_0" index="0" disallow="pedestrian tram rail_urban rail rail_electric rail_fast ship" speed="27.78" length="0.20" width="3.35" shape="361.09,1088.43 361.05,1088.63" type="driving">
            <param key="origId" value="492_-1"/>
        </lane>
    </edge>
    <edge id="-493" from="43" to="44" priority="1" type="driving" shape="356.94,1093.56 356.79,1093.69">
        <lane id="-493_0" index="0" disallow="pedestrian tram rail_urban rail rail_electric rail_fast ship" speed="27.78" length="0.20" width="3.35" shape="358.32,1094.58 358.17,1094.71" type="driving">
            <param key="origId" value="493_-1"/>
        </lane>
    </edge>
    <edge id="-494" from="44" to="41" priority="1" type="driving" shape="353.42,1094.84 353.22,1094.84">
        <lane id="-494_0" index="0" disallow="pedestrian tram rail_urban rail rail_electric rail_fast ship" speed="27.78" length="0.20" width="3.35" shape="357.30,1096.51 357.10,1096.51" type="driving">
            <param key="origId" value="494_-1"/>
        </lane>
    </edge>
    <edge id="-495" from="41" to="37" priority="1" type="driving" shape="348.56,1092.48 348.47,1092.30">
        <lane id="-495_0" index="0" disallow="pedestrian tram rail_urban rail rail_electric rail_fast ship" speed="27.78" length="0.20" width="3.35" shape="347.29,1093.68 347.20,1093.50" type="driving">
            <param key="origId" value="495_-1"/>
        </lane>
    </edge>
    <edge id="-496" from="40" to="42" priority="1" type="driving" shape="358.54,1086.40 358.62,1086.58">
        <lane id="-496_0" index="0" disallow="pedestrian tram rail_urban rail rail_electric rail_fast ship" speed="27.78" length="0.20" width="3.35" shape="359.89,1085.31 359.97,1085.49" type="driving">
            <param key="origId" value="496_-1"/>
        </lane>
    </edge>
    <edge id="-497" from="2" to="24" priority="1" type="sidewalk|driving" shape="380.35,46.21 371.62,51.89 370.96,52.34 370.25,52.85 369.48,53.42 368.67,54.04 367.84,54.70 366.98,55.38 366.12,56.08 365.27,56.78 364.42,57.48 363.60,58.16 362.82,58.82 362.08,59.43 361.41,59.99 360.79,60.50 360.20,61.03 359.52,61.69 358.96,62.26 358.41,62.83 357.79,63.47 357.13,64.16 356.42,64.90 355.68,65.67 354.93,66.47 354.16,67.27 353.39,68.08 352.63,68.87 351.90,69.65 351.20,70.39 350.54,71.09 349.93,71.73 349.39,72.31 348.80,72.96 348.11,73.75 347.42,74.55 346.85,75.21 346.34,75.81 345.76,76.49 345.13,77.21 344.46,77.99 343.77,78.80 343.05,79.63 342.32,80.47 341.60,81.32 340.88,82.15 340.19,82.96 339.52,83.74 338.90,84.47 338.32,85.14 337.81,85.75 332.58,91.95 330.00,95.01 293.75,138.19 293.24,138.79 292.67,139.47 292.05,140.21 291.39,140.99 290.70,141.80 289.99,142.64 289.27,143.49 288.55,144.34 287.84,145.18 287.15,146.00 286.49,146.78 285.87,147.51 285.29,148.18 284.78,148.79 256.55,181.86 256.04,182.46 255.46,183.14 254.84,183.87 254.18,184.65 253.48,185.46 252.77,186.30 252.05,187.15 251.33,188.00 250.62,188.83 249.93,189.65 249.27,190.43 248.65,191.16 248.07,191.84 247.56,192.44 236.92,205.03 234.34,208.08 230.79,212.31 230.28,212.92 229.71,213.60 229.10,214.33 228.44,215.12 227.75,215.93 227.05,216.78 226.33,217.63 225.61,218.48 224.91,219.32 224.22,220.14 223.56,220.92 222.94,221.66 222.38,222.34 221.86,222.95 221.49,223.39 221.00,223.46 220.17,223.59 219.09,223.75 217.84,223.94 216.51,224.11 215.19,224.27 213.96,224.38 212.91,224.43 212.13,224.40 211.69,224.26 187.54,204.16 186.93,203.65 186.24,203.09 185.51,202.47 184.72,201.82 183.90,201.13 183.05,200.43 182.20,199.72 181.34,199.01 180.50,198.30 179.68,197.62 178.89,196.97 178.15,196.35 177.47,195.79 176.86,195.28 168.10,187.98">
        <lane id="-497_0" index="0" allow="pedestrian" speed="13.89" length="309.44" width="2.80" shape="382.94,50.19 374.22,55.87 373.69,56.23 373.05,56.69 372.34,57.21 371.59,57.78 370.79,58.42 369.95,59.08 369.13,59.76 368.29,60.45 367.45,61.14 366.65,61.80 365.87,62.47 365.11,63.09 364.44,63.65 363.89,64.10 363.45,64.50 362.87,65.06 362.36,65.57 361.82,66.13 361.21,66.76 360.56,67.45 359.85,68.19 359.13,68.94 358.37,69.74 357.59,70.55 356.82,71.36 356.08,72.14 355.36,72.90 354.65,73.65 353.99,74.36 353.39,74.99 352.89,75.52 352.35,76.12 351.70,76.86 351.02,77.65 350.46,78.30 349.96,78.89 349.35,79.60 348.72,80.32 348.07,81.08 347.37,81.90 346.64,82.74 345.92,83.56 345.21,84.41 344.48,85.25 343.80,86.05 343.13,86.83 342.51,87.56 341.94,88.22 341.44,88.81 336.21,95.01 333.63,98.07 297.39,141.24 296.87,141.85 296.31,142.52 295.68,143.27 295.01,144.06 294.32,144.87 293.62,145.71 292.89,146.56 292.18,147.41 291.47,148.24 290.78,149.06 290.11,149.85 289.48,150.60 288.91,151.26 288.41,151.86 260.16,184.94 259.66,185.54 259.08,186.22 258.46,186.94 257.79,187.74 257.09,188.55 256.40,189.37 255.67,190.22 254.95,191.08 254.24,191.90 253.56,192.71 252.89,193.50 252.27,194.24 251.69,194.92 251.19,195.51 240.55,208.10 237.97,211.14 234.43,215.36 233.92,215.97 233.35,216.65 232.75,217.38 232.07,218.18 231.39,218.98 230.70,219.83 229.95,220.70 229.25,221.54 228.55,222.37 227.85,223.20 227.19,223.98 226.59,224.70 226.02,225.39 225.48,226.02 223.96,227.84 221.71,228.16 220.88,228.29 219.80,228.45 218.50,228.64 217.10,228.82 215.69,228.99 214.29,229.12 212.96,229.18 211.30,229.12 209.37,228.50 184.50,207.81 183.91,207.32 183.20,206.74 182.46,206.12 181.68,205.47 180.86,204.78 180.02,204.09 179.17,203.37 178.29,202.66 177.45,201.94 176.65,201.28 175.86,200.62 175.11,200.00 174.44,199.45 173.82,198.93 165.06,191.63" type="sidewalk">
            <param key="origId" value="497_-2 498_-2 499_-2"/>
        </lane>
        <lane id="-497_1" index="1" disallow="pedestrian tram rail_urban rail rail_electric rail_fast ship" speed="13.89" length="309.44" width="3.35" shape="381.26,47.61 372.54,53.29 371.92,53.71 371.24,54.20 370.49,54.76 369.70,55.36 368.88,56.01 368.03,56.69 367.18,57.38 366.33,58.07 365.49,58.77 364.68,59.44 363.89,60.11 363.15,60.72 362.48,61.28 361.88,61.77 361.35,62.25 360.70,62.88 360.16,63.43 359.61,63.99 359.00,64.63 358.34,65.32 357.63,66.06 356.89,66.82 356.14,67.62 355.37,68.43 354.60,69.24 353.84,70.02 353.12,70.80 352.42,71.54 351.76,72.24 351.15,72.88 350.62,73.44 350.05,74.07 349.37,74.85 348.69,75.64 348.12,76.30 347.62,76.90 347.03,77.59 346.40,78.31 345.73,79.08 345.04,79.89 344.31,80.73 343.59,81.56 342.87,82.41 342.15,83.24 341.46,84.05 340.79,84.83 340.17,85.56 339.60,86.23 339.09,86.83 333.86,93.03 331.28,96.09 295.03,139.27 294.52,139.87 293.95,140.55 293.33,141.29 292.67,142.07 291.98,142.88 291.27,143.72 290.55,144.57 289.83,145.42 289.12,146.26 288.43,147.08 287.77,147.86 287.14,148.60 286.57,149.27 286.06,149.87 257.82,182.95 257.32,183.55 256.74,184.23 256.12,184.95 255.45,185.74 254.75,186.55 254.05,187.38 253.33,188.23 252.61,189.09 251.90,189.91 251.21,190.73 250.55,191.51 249.93,192.25 249.35,192.93 248.84,193.52 238.20,206.11 235.62,209.16 232.07,213.39 231.56,214.00 230.99,214.67 230.39,215.40 229.72,216.20 229.03,217.01 228.34,217.85 227.61,218.71 226.89,219.56 226.19,220.40 225.50,221.22 224.84,222.00 224.23,222.73 223.66,223.42 223.14,224.03 222.36,224.96 221.25,225.12 220.42,225.25 219.34,225.41 218.07,225.60 216.72,225.77 215.37,225.94 214.08,226.05 212.93,226.10 211.84,226.07 210.87,225.76 186.47,205.45 185.87,204.94 185.17,204.38 184.44,203.76 183.65,203.11 182.83,202.42 181.98,201.72 181.13,201.01 180.27,200.30 179.42,199.58 178.61,198.91 177.82,198.26 177.08,197.64 176.40,197.08 175.79,196.57 167.03,189.27" type="driving">
            <param key="origId" value="497_-1 498_-1 499_-1"/>
        </lane>
    </edge>
    <edge id="-500" from="5" to="4" priority="1" type="sidewalk|driving" shape="288.29,1141.32 339.99,1100.86">
        <lane id="-500_0" index="0" allow="pedestrian" speed="27.78" length="65.65" width="2.80" shape="285.36,1137.58 337.06,1097.12" type="sidewalk">
            <param key="origId" value="500_-2"/>
        </lane>
        <lane id="-500_1" index="1" disallow="pedestrian tram rail_urban rail rail_electric rail_fast ship" speed="27.78" length="65.65" width="3.35" shape="287.26,1140.00 338.96,1099.54" type="driving">
            <param key="origId" value="500_-1"/>
        </lane>
    </edge>
    <edge id="-501" from="7" to="9" priority="1" type="sidewalk|driving" shape="366.56,1102.67 369.58,1104.52 372.98,1106.53 386.25,1114.10 386.93,1114.49 387.69,1114.95 388.51,1115.44 389.38,1115.98 390.29,1116.55 391.22,1117.13 392.15,1117.73 393.09,1118.34 394.00,1118.94 394.89,1119.53 395.74,1120.10 396.53,1120.64 397.26,1121.15 397.91,1121.61 474.71,1177.21 475.36,1177.67 476.07,1178.19 476.86,1178.75 477.69,1179.35 478.55,1179.97 479.45,1180.61 480.35,1181.26 481.26,1181.91 482.15,1182.55 483.02,1183.17 483.85,1183.76 484.64,1184.32 485.36,1184.83 486.01,1185.29 487.32,1186.22 494.60,1190.18">
        <lane id="-501_0" index="0" allow="pedestrian" speed="13.89" length="155.08" width="2.80" shape="369.04,1098.62 372.03,1100.45 375.37,1102.42 388.60,1109.97 389.34,1110.40 390.14,1110.88 390.98,1111.38 391.89,1111.95 392.81,1112.52 393.76,1113.12 394.73,1113.74 395.69,1114.36 396.62,1114.98 397.52,1115.58 398.40,1116.17 399.23,1116.73 399.99,1117.26 400.67,1117.75 477.50,1173.36 478.14,1173.82 478.85,1174.34 479.63,1174.89 480.47,1175.50 481.32,1176.11 482.22,1176.75 483.12,1177.40 484.03,1178.05 484.92,1178.69 485.77,1179.30 486.60,1179.89 487.39,1180.44 488.10,1180.95 488.76,1181.42 489.84,1182.18 496.87,1186.01" type="sidewalk">
            <param key="origId" value="501_-2 502_-2 503_-2"/>
        </lane>
        <lane id="-501_1" index="1" disallow="pedestrian tram rail_urban rail rail_electric rail_fast ship" speed="13.89" length="155.08" width="3.35" shape="367.43,1101.24 370.44,1103.08 373.82,1105.08 387.08,1112.65 387.78,1113.05 388.55,1113.51 389.38,1114.01 390.27,1114.56 391.18,1115.13 392.12,1115.72 393.06,1116.32 394.01,1116.94 394.92,1117.54 395.82,1118.14 396.68,1118.71 397.48,1119.26 398.22,1119.78 398.88,1120.25 475.69,1175.85 476.34,1176.31 477.05,1176.83 477.84,1177.39 478.67,1177.99 479.53,1178.61 480.43,1179.25 481.33,1179.90 482.24,1180.55 483.13,1181.19 483.99,1181.81 484.82,1182.39 485.61,1182.95 486.33,1183.46 486.98,1183.92 488.21,1184.80 495.40,1188.71" type="driving">
            <param key="origId" value="501_-1 502_-1 503_-1"/>
        </lane>
    </edge>
    <edge id="-510" from="19" to="18" priority="1" type="sidewalk|driving" shape="245.46,173.13 210.61,139.99 210.04,139.45 209.41,138.84 208.73,138.18 208.01,137.48 207.25,136.74 206.48,135.98 205.70,135.21 204.91,134.43 204.15,133.67 203.40,132.92 202.69,132.21 202.02,131.53 201.40,130.91 200.85,130.35 200.72,130.21">
        <lane id="-510_0" index="0" allow="pedestrian" speed="13.89" length="61.92" width="2.80" shape="242.19,176.57 207.34,143.43 206.75,142.88 206.10,142.25 205.42,141.59 204.70,140.88 203.92,140.13 203.14,139.36 202.36,138.59 201.56,137.80 200.79,137.03 200.04,136.28 199.32,135.56 198.65,134.88 198.03,134.25 197.46,133.68" type="sidewalk">
            <param key="origId" value="510_-2"/>
        </lane>
        <lane id="-510_1" index="1" disallow="pedestrian tram rail_urban rail rail_electric rail_fast ship" speed="13.89" length="61.92" width="3.35" shape="244.31,174.34 209.46,141.20 208.88,140.66 208.24,140.04 207.56,139.38 206.84,138.68 206.08,137.94 205.30,137.17 204.52,136.40 203.73,135.62 202.97,134.85 202.22,134.10 201.50,133.39 200.83,132.71 200.21,132.09 199.65,131.52" type="driving">
            <param key="origId" value="510_-1"/>
        </lane>
    </edge>
    <edge id="-511" from="35" to="20" priority="1" type="sidewalk|driving" shape="152.45,93.52 171.22,60.56 171.93,59.47 172.65,58.65 173.38,58.12 174.12,57.87 174.87,57.90 189.55,61.26">
        <lane id="-511_0" index="0" allow="pedestrian" speed="13.89" length="61.95" width="2.80" shape="148.32,91.17 167.10,58.20 168.14,56.59 169.43,55.12 171.17,53.85 173.43,53.09 175.50,53.17 190.61,56.63" type="sidewalk">
            <param key="origId" value="511_-2"/>
        </lane>
        <lane id="-511_1" index="1" disallow="pedestrian tram rail_urban rail rail_electric rail_fast ship" speed="13.89" length="61.95" width="3.35" shape="150.99,92.69 169.77,59.73 170.59,58.46 171.51,57.40 172.60,56.61 173.88,56.18 175.09,56.23 189.92,59.63" type="driving">
            <param key="origId" value="511_-1"/>
        </lane>
    </edge>
    <edge id="-512" from="2" to="18" priority="1" type="sidewalk|driving" shape="382.70,35.73 362.65,3.27 362.08,2.44 361.46,1.73 360.80,1.15 360.10,0.68 359.35,0.33 358.55,0.11 357.71,0.00 356.83,0.01 315.07,3.38 314.29,3.46 313.42,3.59 312.49,3.76 311.50,3.97 310.47,4.20 309.42,4.46 308.35,4.73 307.29,5.01 306.24,5.30 305.22,5.60 304.25,5.88 303.34,6.16 302.50,6.42 301.75,6.66 301.02,6.91 300.19,7.21 299.29,7.56 298.34,7.94 297.37,8.35 296.38,8.77 295.41,9.20 294.48,9.62 293.61,10.03 292.81,10.41 292.12,10.75 291.42,11.12 290.64,11.53 289.80,11.97 288.90,12.46 287.97,12.96 287.01,13.49 286.05,14.04 285.09,14.59 284.15,15.14 283.24,15.69 282.39,16.23 281.59,16.75 280.86,17.25 280.23,17.72 249.03,41.81 248.40,42.28 247.68,42.80 246.89,43.35 246.05,43.93 245.17,44.52 244.26,45.13 243.33,45.74 242.40,46.35 241.48,46.94 240.58,47.52 239.72,48.07 238.91,48.59 238.17,49.07 237.51,49.50 236.71,49.94 235.76,50.43 235.02,50.93 234.46,51.45 233.83,52.03 233.14,52.65 232.41,53.32 231.65,54.02 230.87,54.75 230.09,55.49 229.32,56.25 228.59,57.00 227.89,57.76 227.26,58.50 226.69,59.21 226.21,59.91 225.83,60.56 196.50,117.84">
        <lane id="-512_0" index="0" allow="pedestrian" speed="13.89" length="252.17" width="2.80" shape="378.66,38.23 358.61,5.77 358.32,5.36 358.09,5.09 357.90,4.92 357.76,4.83 357.61,4.78 357.43,4.75 357.05,4.76 315.45,8.11 314.89,8.17 314.20,8.28 313.41,8.42 312.51,8.61 311.56,8.82 310.57,9.07 309.54,9.33 308.53,9.60 307.54,9.87 306.55,10.16 305.61,10.43 304.74,10.70 303.92,10.95 303.24,11.17 302.60,11.39 301.86,11.66 301.03,11.98 300.15,12.33 299.22,12.72 298.27,13.13 297.35,13.54 296.47,13.93 295.64,14.32 294.88,14.69 294.28,14.98 293.63,15.32 292.85,15.74 292.04,16.16 291.16,16.64 290.24,17.13 289.34,17.63 288.41,18.16 287.47,18.70 286.58,19.22 285.74,19.73 284.96,20.23 284.22,20.70 283.62,21.12 283.10,21.50 251.93,45.57 251.21,46.11 250.43,46.68 249.60,47.25 248.72,47.86 247.81,48.47 246.88,49.09 245.94,49.71 244.98,50.34 244.05,50.94 243.15,51.52 242.28,52.07 241.49,52.58 240.76,53.05 239.94,53.58 238.94,54.13 238.19,54.52 237.98,54.66 237.68,54.94 237.03,55.54 236.33,56.17 235.63,56.82 234.88,57.50 234.13,58.21 233.39,58.90 232.69,59.60 232.04,60.27 231.44,60.91 230.92,61.53 230.50,62.05 230.22,62.46 230.00,62.84 200.73,120.00" type="sidewalk">
            <param key="origId" value="512_-2"/>
        </lane>
        <lane id="-512_1" index="1" disallow="pedestrian tram rail_urban rail rail_electric rail_fast ship" speed="13.89" length="252.17" width="3.35" shape="381.27,36.61 361.23,4.15 360.75,3.47 360.27,2.92 359.78,2.48 359.27,2.14 358.77,1.91 358.22,1.76 357.61,1.68 356.91,1.68 315.21,5.05 314.50,5.12 313.70,5.24 312.82,5.40 311.86,5.61 310.85,5.83 309.83,6.08 308.77,6.35 307.73,6.63 306.70,6.91 305.69,7.21 304.73,7.49 303.83,7.76 303.00,8.02 302.28,8.25 301.58,8.49 300.78,8.78 299.90,9.12 298.98,9.49 298.02,9.89 297.05,10.31 296.09,10.73 295.18,11.14 294.33,11.54 293.54,11.92 292.88,12.24 292.20,12.60 291.42,13.01 290.59,13.45 289.70,13.93 288.77,14.43 287.83,14.95 286.88,15.49 285.93,16.04 285.01,16.58 284.12,17.11 283.30,17.64 282.52,18.14 281.83,18.61 281.24,19.05 250.05,43.14 249.39,43.63 248.65,44.17 247.84,44.73 246.99,45.31 246.10,45.91 245.19,46.53 244.25,47.14 243.31,47.76 242.39,48.35 241.48,48.93 240.62,49.48 239.82,50.00 239.08,50.47 238.37,50.94 237.50,51.42 236.62,51.87 236.06,52.25 235.60,52.68 234.96,53.27 234.27,53.89 233.54,54.55 232.79,55.25 232.02,55.97 231.25,56.69 230.51,57.43 229.81,58.15 229.14,58.87 228.55,59.57 228.03,60.21 227.62,60.81 227.30,61.37 197.99,118.60" type="driving">
            <param key="origId" value="512_-1"/>
        </lane>
    </edge>
    <edge id="-513" from="20" to="34" priority="1" type="sidewalk|driving" shape="189.60,66.05 168.22,107.08 167.82,107.75 167.32,108.47 166.73,109.22 166.07,110.00 165.33,110.78 164.55,111.56 163.74,112.31 162.91,113.02 162.07,113.69 161.25,114.28 160.45,114.80 159.69,115.23 158.79,115.62">
        <lane id="-513_0" index="0" allow="pedestrian" speed="13.89" length="61.36" width="2.80" shape="193.81,68.25 172.43,109.28 171.81,110.33 171.14,111.30 170.41,112.23 169.61,113.17 168.73,114.09 167.84,114.98 166.90,115.86 165.94,116.68 164.94,117.47 163.93,118.20 162.92,118.86 161.81,119.49 160.68,119.98" type="sidewalk">
            <param key="origId" value="513_-2"/>
        </lane>
[...]
        <param key="origId" value="597_-2"/>
    </connection>
    <connection from="-474" to="-525" fromLane="1" toLane="1" via=":32_0_1" dir="t" state="M">
        <param key="origId" value="597_-1"/>
    </connection>
    <connection from="-475" to="-512" fromLane="0" toLane="0" via=":2_0_0" dir="r" state="M">
        <param key="origId" value="590_-2"/>
    </connection>
    <connection from="-475" to="-512" fromLane="1" toLane="1" via=":2_0_1" dir="r" state="M">
        <param key="origId" value="590_-1"/>
    </connection>
    <connection from="-477" to="-475" fromLane="0" toLane="0" via=":24_6_0" dir="s" state="M">
        <param key="origId" value="589_-2"/>
    </connection>
    <connection from="-477" to="-475" fromLane="1" toLane="1" via=":24_6_1" dir="s" state="M">
        <param key="origId" value="589_-1"/>
    </connection>
    <connection from="-478" to="-477" fromLane="0" toLane="0" via=":17_3_0" dir="r" state="M">
        <param key="origId" value="602_-2"/>
    </connection>
    <connection from="-478" to="-477" fromLane="1" toLane="1" via=":17_3_1" dir="r" state="M">
        <param key="origId" value="602_-1"/>
    </connection>
    <connection from="-478" to="-462" fromLane="1" toLane="1" via=":17_5_0" dir="s" state="M">
        <param key="origId" value="603_-1"/>
    </connection>
    <connection from="-479" to="-478" fromLane="0" toLane="0" via=":34_5_0" dir="s" state="M">
        <param key="origId" value="574_-2"/>
    </connection>
    <connection from="-479" to="-478" fromLane="1" toLane="1" via=":34_5_1" dir="s" state="M">
        <param key="origId" value="574_-1"/>
    </connection>
    <connection from="-480" to="-511" fromLane="0" toLane="0" via=":35_3_0" dir="r" state="M">
        <param key="origId" value="578_-2"/>
    </connection>
    <connection from="-480" to="-511" fromLane="1" toLane="1" via=":35_3_1" dir="r" state="M">
        <param key="origId" value="578_-1"/>
    </connection>
    <connection from="-480" to="-479" fromLane="1" toLane="1" via=":35_5_0" dir="s" state="M">
        <param key="origId" value="579_-1"/>
    </connection>
    <connection from="-480" to="-530" fromLane="1" toLane="1" via=":35_6_0" dir="t" state="m">
        <param key="origId" value="580_-1"/>
    </connection>
    <connection from="-481" to="-486" fromLane="0" toLane="1" via=":38_0_0" dir="r" state="M">
        <param key="origId" value="531_-1"/>
    </connection>
    <connection from="-481" to="-482" fromLane="0" toLane="0" via=":38_1_0" dir="s" state="M">
        <param key="origId" value="532_-1"/>
    </connection>
    <connection from="-482" to="-483" fromLane="0" toLane="0" via=":39_1_0" dir="s" state="M">
        <param key="origId" value="534_-1"/>
    </connection>
    <connection from="-483" to="-489" fromLane="0" toLane="1" via=":40_0_0" dir="r" state="M">
        <param key="origId" value="535_-1"/>
    </connection>
    <connection from="-483" to="-496" fromLane="0" toLane="0" via=":40_1_0" dir="s" state="M">
        <param key="origId" value="536_-1"/>
    </connection>
    <connection from="-484" to="-481" fromLane="1" toLane="0" via=":37_1_0" dir="s" state="m" visibility="9.00">
        <param key="origId" value="546_-1"/>
    </connection>
    <connection from="-485" to="-452" fromLane="1" toLane="0" via=":4_0_0" dir="s" state="M">
        <param key="origId" value="547_-1"/>
    </connection>
    <connection from="-485" to="-484" fromLane="1" toLane="1" via=":4_1_0" dir="l" state="m">
        <param key="origId" value="548_-1"/>
    </connection>
    <connection from="-486" to="-514" fromLane="0" toLane="0" via=":22_0_0" dir="s" state="M">
        <param key="origId" value="554_-2"/>
    </connection>
    <connection from="-486" to="-514" fromLane="1" toLane="1" via=":22_0_1" dir="s" state="M">
        <param key="origId" value="554_-1"/>
    </connection>
    <connection from="-486" to="-487" fromLane="1" toLane="1" via=":22_2_0" dir="l" state="m">
        <param key="origId" value="555_-1"/>
    </connection>
    <connection from="-487" to="-483" fromLane="1" toLane="0" via=":39_0_0" dir="s" state="m" visibility="9.00">
        <param key="origId" value="533_-1"/>
    </connection>
    <connection from="-488" to="-492" fromLane="1" toLane="0" via=":42_0_0" dir="s" state="m" visibility="9.00">
        <param key="origId" value="537_-1"/>
    </connection>
    <connection from="-489" to="-474" fromLane="0" toLane="0" via=":31_3_0" dir="s" state="M">
        <param key="origId" value="552_-2"/>
    </connection>
    <connection from="-489" to="-474" fromLane="1" toLane="1" via=":31_3_1" dir="s" state="M">
        <param key="origId" value="552_-1"/>
    </connection>
    <connection from="-489" to="-488" fromLane="1" toLane="1" via=":31_5_0" dir="l" state="m">
        <param key="origId" value="553_-1"/>
    </connection>
    <connection from="-490" to="-501" fromLane="0" toLane="0" via=":7_2_0" dir="s" state="M">
        <param key="origId" value="560_-2"/>
    </connection>
    <connection from="-490" to="-501" fromLane="1" toLane="1" via=":7_2_1" dir="s" state="M">
        <param key="origId" value="560_-1"/>
    </connection>
    <connection from="-490" to="-491" fromLane="1" toLane="1" via=":7_4_0" dir="l" state="m">
        <param key="origId" value="561_-1"/>
    </connection>
    <connection from="-491" to="-494" fromLane="1" toLane="0" via=":44_0_0" dir="s" state="m" visibility="9.00">
        <param key="origId" value="541_-1"/>
    </connection>
    <connection from="-492" to="-490" fromLane="0" toLane="1" via=":43_0_0" dir="R" state="M">
        <param key="origId" value="539_-1"/>
    </connection>
    <connection from="-492" to="-493" fromLane="0" toLane="0" via=":43_1_0" dir="s" state="M">
        <param key="origId" value="540_-1"/>
    </connection>
    <connection from="-493" to="-494" fromLane="0" toLane="0" via=":44_1_0" dir="s" state="M">
        <param key="origId" value="542_-1"/>
    </connection>
    <connection from="-494" to="-485" fromLane="0" toLane="1" via=":41_0_0" dir="r" state="M">
        <param key="origId" value="543_-1"/>
    </connection>
    <connection from="-494" to="-495" fromLane="0" toLane="0" via=":41_1_0" dir="s" state="M">
        <param key="origId" value="544_-1"/>
    </connection>
    <connection from="-495" to="-481" fromLane="0" toLane="0" via=":37_0_0" dir="s" state="M">
        <param key="origId" value="545_-1"/>
    </connection>
    <connection from="-496" to="-492" fromLane="0" toLane="0" via=":42_1_0" dir="s" state="M">
        <param key="origId" value="538_-1"/>
    </connection>
    <connection from="-497" to="-526" fromLane="0" toLane="0" via=":24_0_0" dir="s" state="M">
        <param key="origId" value="585_-2"/>
    </connection>
    <connection from="-497" to="-526" fromLane="1" toLane="1" via=":24_0_1" dir="s" state="M">
        <param key="origId" value="585_-1"/>
    </connection>
    <connection from="-497" to="-475" fromLane="1" toLane="1" via=":24_2_0" dir="t" state="m">
        <param key="origId" value="586_-1"/>
    </connection>
    <connection from="-500" to="-484" fromLane="0" toLane="0" via=":4_2_0" dir="s" state="M">
        <param key="origId" value="549_-2"/>
    </connection>
    <connection from="-500" to="-484" fromLane="1" toLane="1" via=":4_2_1" dir="s" state="M">
        <param key="origId" value="549_-1"/>
    </connection>
    <connection from="-501" to="-455" fromLane="1" toLane="1" via=":9_0_0" dir="t" state="M"/>
    <connection from="-510" to="-519" fromLane="0" toLane="0" via=":18_0_0" dir="r" state="M">
        <param key="origId" value="582_-2"/>
    </connection>
    <connection from="-510" to="-519" fromLane="1" toLane="1" via=":18_0_1" dir="r" state="M">
        <param key="origId" value="582_-1"/>
    </connection>
    <connection from="-511" to="-513" fromLane="0" toLane="0" via=":20_0_0" dir="l" state="M">
        <param key="origId" value="575_-2"/>
    </connection>
    <connection from="-511" to="-513" fromLane="1" toLane="1" via=":20_0_1" dir="l" state="M">
        <param key="origId" value="575_-1"/>
    </connection>
    <connection from="-512" to="-463" fromLane="0" toLane="0" via=":18_2_0" dir="r" state="M">
        <param key="origId" value="583_-2"/>
    </connection>
    <connection from="-512" to="-463" fromLane="1" toLane="1" via=":18_2_1" dir="r" state="M">
        <param key="origId" value="583_-1"/>
    </connection>
    <connection from="-512" to="-519" fromLane="1" toLane="1" via=":18_4_0" dir="s" state="m">
        <param key="origId" value="584_-1"/>
    </connection>
    <connection from="-513" to="-478" fromLane="0" toLane="0" via=":34_2_0" dir="r" state="m">
        <param key="origId" value="572_-2"/>
    </connection>
    <connection from="-513" to="-478" fromLane="1" toLane="1" via=":34_2_1" dir="r" state="m">
        <param key="origId" value="572_-1"/>
    </connection>
    <connection from="-513" to="-529" fromLane="1" toLane="1" via=":34_4_0" dir="l" state="m">
        <param key="origId" value="573_-1"/>
    </connection>
    <connection from="-514" to="-528" fromLane="0" toLane="0" via=":17_6_0" dir="s" state="M">
        <param key="origId" value="604_-2"/>
    </connection>
    <connection from="-514" to="-528" fromLane="1" toLane="1" via=":17_6_1" dir="s" state="M">
        <param key="origId" value="604_-1"/>
    </connection>
    <connection from="-514" to="-477" fromLane="1" toLane="1" via=":17_8_0" dir="l" state="m">
        <param key="origId" value="605_-1"/>
    </connection>
    <connection from="-519" to="-475" fromLane="0" toLane="0" via=":24_3_0" dir="r" state="m">
        <param key="origId" value="587_-2"/>
    </connection>
    <connection from="-519" to="-475" fromLane="1" toLane="1" via=":24_3_1" dir="r" state="m">
        <param key="origId" value="587_-1"/>
    </connection>
    <connection from="-519" to="-526" fromLane="1" toLane="1" via=":24_5_0" dir="l" state="m">
        <param key="origId" value="588_-1"/>
    </connection>
    <connection from="-525" to="-488" fromLane="0" toLane="0" via=":31_0_0" dir="s" state="M">
        <param key="origId" value="550_-2"/>
    </connection>
    <connection from="-525" to="-488" fromLane="1" toLane="1" via=":31_0_1" dir="s" state="M">
        <param key="origId" value="550_-1"/>
    </connection>
    <connection from="-525" to="-474" fromLane="1" toLane="1" via=":31_2_0" dir="t" state="m">
        <param key="origId" value="551_-1"/>
    </connection>
    <connection from="-526" to="-462" fromLane="0" toLane="0" via=":17_0_0" dir="r" state="M">
        <param key="origId" value="600_-2"/>
    </connection>
    <connection from="-526" to="-462" fromLane="1" toLane="1" via=":17_0_1" dir="r" state="m">
        <param key="origId" value="600_-1"/>
    </connection>
    <connection from="-526" to="-528" fromLane="1" toLane="1" via=":17_2_0" dir="l" state="m">
        <param key="origId" value="601_-1"/>
    </connection>
    <connection from="-528" to="-529" fromLane="0" toLane="0" via=":34_0_0" dir="s" state="M">
        <param key="origId" value="571_-2"/>
    </connection>
    <connection from="-528" to="-529" fromLane="1" toLane="1" via=":34_0_1" dir="s" state="M">
        <param key="origId" value="571_-1"/>
    </connection>
    <connection from="-529" to="-530" fromLane="0" toLane="0" via=":35_0_0" dir="s" state="M">
        <param key="origId" value="576_-2"/>
    </connection>
    <connection from="-529" to="-530" fromLane="1" toLane="1" via=":35_0_1" dir="s" state="M">
        <param key="origId" value="576_-1"/>
    </connection>
    <connection from="-529" to="-511" fromLane="1" toLane="1" via=":35_2_0" dir="l" state="m">
        <param key="origId" value="577_-1"/>
    </connection>
    <connection from="-530" to="-480" fromLane="0" toLane="0" via=":36_0_0" dir="t" state="M">
        <param key="origId" value="570_-2"/>
    </connection>
    <connection from="-530" to="-480" fromLane="1" toLane="1" via=":36_0_1" dir="t" state="M">
        <param key="origId" value="570_-1"/>
    </connection>

    <connection from=":17_0" to="-462" fromLane="0" toLane="0" dir="r" state="M"/>
    <connection from=":17_0" to="-462" fromLane="1" toLane="1" dir="r" state="M"/>
    <connection from=":17_2" to="-528" fromLane="0" toLane="1" dir="l" state="M"/>
    <connection from=":17_3" to="-477" fromLane="0" toLane="0" dir="r" state="M"/>
    <connection from=":17_3" to="-477" fromLane="1" toLane="1" dir="r" state="M"/>
    <connection from=":17_5" to="-462" fromLane="0" toLane="1" dir="s" state="M"/>
    <connection from=":17_6" to="-528" fromLane="0" toLane="0" dir="s" state="M"/>
    <connection from=":17_6" to="-528" fromLane="1" toLane="1" dir="s" state="M"/>
    <connection from=":17_8" to="-477" fromLane="0" toLane="1" via=":17_9_0" dir="l" state="m"/>
    <connection from=":17_9" to="-477" fromLane="0" toLane="1" dir="l" state="M"/>
    <connection from=":18_0" to="-519" fromLane="0" toLane="0" dir="r" state="M"/>
    <connection from=":18_0" to="-519" fromLane="1" toLane="1" dir="r" state="M"/>
    <connection from=":18_2" to="-463" fromLane="0" toLane="0" dir="r" state="M"/>
    <connection from=":18_2" to="-463" fromLane="1" toLane="1" dir="r" state="M"/>
    <connection from=":18_4" to="-519" fromLane="0" toLane="1" dir="s" state="M"/>
    <connection from=":19_0" to="-510" fromLane="0" toLane="1" dir="t" state="M"/>
    <connection from=":2_0" to="-512" fromLane="0" toLane="0" dir="r" state="M"/>
    <connection from=":2_0" to="-512" fromLane="1" toLane="1" dir="r" state="M"/>
    <connection from=":20_0" to="-513" fromLane="0" toLane="0" dir="l" state="M"/>
    <connection from=":20_0" to="-513" fromLane="1" toLane="1" dir="l" state="M"/>
    <connection from=":22_0" to="-514" fromLane="0" toLane="0" dir="s" state="M"/>
    <connection from=":22_0" to="-514" fromLane="1" toLane="1" dir="s" state="M"/>
    <connection from=":22_2" to="-487" fromLane="0" toLane="1" via=":22_5_0" dir="l" state="m"/>
    <connection from=":22_5" to="-487" fromLane="0" toLane="1" dir="l" state="M"/>
    <connection from=":22_3" to="-487" fromLane="0" toLane="0" dir="s" state="M"/>
    <connection from=":22_3" to="-487" fromLane="1" toLane="1" dir="s" state="M"/>
    <connection from=":24_0" to="-526" fromLane="0" toLane="0" dir="s" state="M"/>
    <connection from=":24_0" to="-526" fromLane="1" toLane="1" dir="s" state="M"/>
    <connection from=":24_2" to="-475" fromLane="0" toLane="1" via=":24_8_0" dir="t" state="m"/>
    <connection from=":24_8" to="-475" fromLane="0" toLane="1" dir="t" state="M"/>
    <connection from=":24_3" to="-475" fromLane="0" toLane="0" dir="r" state="M"/>
    <connection from=":24_3" to="-475" fromLane="1" toLane="1" dir="r" state="M"/>
    <connection from=":24_5" to="-526" fromLane="0" toLane="1" dir="l" state="M"/>
    <connection from=":24_6" to="-475" fromLane="0" toLane="0" dir="s" state="M"/>
    <connection from=":24_6" to="-475" fromLane="1" toLane="1" dir="s" state="M"/>
    <connection from=":31_0" to="-488" fromLane="0" toLane="0" dir="s" state="M"/>
    <connection from=":31_0" to="-488" fromLane="1" toLane="1" dir="s" state="M"/>
    <connection from=":31_2" to="-474" fromLane="0" toLane="1" via=":31_6_0" dir="t" state="m"/>
    <connection from=":31_6" to="-474" fromLane="0" toLane="1" dir="t" state="M"/>
    <connection from=":31_3" to="-474" fromLane="0" toLane="0" dir="s" state="M"/>
    <connection from=":31_3" to="-474" fromLane="1" toLane="1" dir="s" state="M"/>
    <connection from=":31_5" to="-488" fromLane="0" toLane="1" via=":31_7_0" dir="l" state="m"/>
    <connection from=":31_7" to="-488" fromLane="0" toLane="1" dir="l" state="M"/>
    <connection from=":32_0" to="-525" fromLane="0" toLane="0" dir="t" state="M"/>
    <connection from=":32_0" to="-525" fromLane="1" toLane="1" dir="t" state="M"/>
    <connection from=":34_0" to="-529" fromLane="0" toLane="0" dir="s" state="M"/>
    <connection from=":34_0" to="-529" fromLane="1" toLane="1" dir="s" state="M"/>
    <connection from=":34_2" to="-478" fromLane="0" toLane="0" dir="r" state="M"/>
    <connection from=":34_2" to="-478" fromLane="1" toLane="1" dir="r" state="M"/>
    <connection from=":34_4" to="-529" fromLane="0" toLane="1" dir="l" state="M"/>
    <connection from=":34_5" to="-478" fromLane="0" toLane="0" dir="s" state="M"/>
    <connection from=":34_5" to="-478" fromLane="1" toLane="1" dir="s" state="M"/>
    <connection from=":35_0" to="-530" fromLane="0" toLane="0" dir="s" state="M"/>
    <connection from=":35_0" to="-530" fromLane="1" toLane="1" dir="s" state="M"/>
    <connection from=":35_2" to="-511" fromLane="0" toLane="1" via=":35_7_0" dir="l" state="m"/>
    <connection from=":35_7" to="-511" fromLane="0" toLane="1" dir="l" state="M"/>
    <connection from=":35_3" to="-511" fromLane="0" toLane="0" dir="r" state="M"/>
    <connection from=":35_3" to="-511" fromLane="1" toLane="1" dir="r" state="M"/>
    <connection from=":35_5" to="-479" fromLane="0" toLane="1" dir="s" state="M"/>
    <connection from=":35_6" to="-530" fromLane="0" toLane="1" via=":35_8_0" dir="t" state="m"/>
    <connection from=":35_8" to="-530" fromLane="0" toLane="1" dir="t" state="M"/>
    <connection from=":36_0" to="-480" fromLane="0" toLane="0" dir="t" state="M"/>
    <connection from=":36_0" to="-480" fromLane="1" toLane="1" dir="t" state="M"/>
    <connection from=":37_0" to="-481" fromLane="0" toLane="0" dir="s" state="M"/>
    <connection from=":37_1" to="-481" fromLane="0" toLane="0" dir="s" state="M"/>
    <connection from=":38_0" to="-486" fromLane="0" toLane="1" dir="r" state="M"/>
    <connection from=":38_1" to="-482" fromLane="0" toLane="0" dir="s" state="M"/>
    <connection from=":39_0" to="-483" fromLane="0" toLane="0" dir="s" state="M"/>
    <connection from=":39_1" to="-483" fromLane="0" toLane="0" dir="s" state="M"/>
    <connection from=":4_0" to="-452" fromLane="0" toLane="0" dir="s" state="M"/>
    <connection from=":4_1" to="-484" fromLane="0" toLane="1" via=":4_4_0" dir="l" state="m"/>
    <connection from=":4_4" to="-484" fromLane="0" toLane="1" dir="l" state="M"/>
    <connection from=":4_2" to="-484" fromLane="0" toLane="0" dir="s" state="M"/>
    <connection from=":4_2" to="-484" fromLane="1" toLane="1" dir="s" state="M"/>
    <connection from=":40_0" to="-489" fromLane="0" toLane="1" dir="r" state="M"/>
    <connection from=":40_1" to="-496" fromLane="0" toLane="0" dir="s" state="M"/>
    <connection from=":41_0" to="-485" fromLane="0" toLane="1" dir="r" state="M"/>
    <connection from=":41_1" to="-495" fromLane="0" toLane="0" dir="s" state="M"/>
    <connection from=":42_0" to="-492" fromLane="0" toLane="0" dir="s" state="M"/>
    <connection from=":42_1" to="-492" fromLane="0" toLane="0" dir="s" state="M"/>
    <connection from=":43_0" to="-490" fromLane="0" toLane="1" dir="R" state="M"/>
    <connection from=":43_1" to="-493" fromLane="0" toLane="0" dir="s" state="M"/>
    <connection from=":44_0" to="-494" fromLane="0" toLane="0" dir="s" state="M"/>
    <connection from=":44_1" to="-494" fromLane="0" toLane="0" dir="s" state="M"/>
    <connection from=":5_0" to="-500" fromLane="0" toLane="1" dir="t" state="M"/>
    <connection from=":7_0" to="-491" fromLane="0" toLane="0" dir="s" state="M"/>
    <connection from=":7_0" to="-491" fromLane="1" toLane="1" dir="s" state="M"/>
    <connection from=":7_2" to="-501" fromLane="0" toLane="0" dir="s" state="M"/>
    <connection from=":7_2" to="-501" fromLane="1" toLane="1" dir="s" state="M"/>
    <connection from=":7_4" to="-491" fromLane="0" toLane="1" via=":7_5_0" dir="l" state="m"/>
    <connection from=":7_5" to="-491" fromLane="0" toLane="1" dir="l" state="M"/>
    <connection from=":9_0" to="-455" fromLane="0" toLane="1" dir="t" state="M"/>

    <roundabout nodes="37 38 39 40 41 42 43 44" edges="-481 -482 -483 -492 -493 -494 -495 -496"/>

</net>
